#############################################
#    Raw Data to Events Normalizer - v0.1a  #
#############################################
Input file: ../saf-data/db//../rawdata/syslog
Output file: /tmp/temp/syslog.sqlite
Plugin attributes (with default values): 
	eventno = None
	eventtype = None
	origin = None
	timestamp = None
	timestampusec = None
	hostname = None
	daemon = None
	pid = None
	charstring = None
Connecting to output database /tmp/temp/syslog.sqlite
Parsing records..
eventno = None|eventtype = SYSLOG|origin = n30-toshiba|timestamp = 1308408090|timestampusec = 0|hostname = n30-toshiba|daemon = rsyslogd|pid = None|charstring = [origin software="rsyslogd" swVersion="4.2.0" x-pid="1016" x-info="http://www.rsyslog.com"] rsyslogd was HUPed, type 'lightweight'.
eventno = None|eventtype = SYSLOG|origin = n30-toshiba|timestamp = 1308408137|timestampusec = 0|hostname = n30-toshiba|daemon = anacron|pid = 12063|charstring = Job `cron.daily' terminated
eventno = None|eventtype = SYSLOG|origin = n30-toshiba|timestamp = 1308408137|timestampusec = 0|hostname = n30-toshiba|daemon = anacron|pid = 12063|charstring = Job `cron.weekly' started
eventno = None|eventtype = SYSLOG|origin = n30-toshiba|timestamp = 1308408137|timestampusec = 0|hostname = n30-toshiba|daemon = anacron|pid = 12414|charstring = Updated timestamp for job `cron.weekly' to 2011-06-18
eventno = None|eventtype = SYSLOG|origin = n30-toshiba|timestamp = 1308408138|timestampusec = 0|hostname = n30-toshiba|daemon = anacron|pid = 12063|charstring = Job `cron.weekly' terminated
eventno = None|eventtype = SYSLOG|origin = n30-toshiba|timestamp = 1308408138|timestampusec = 0|hostname = n30-toshiba|daemon = anacron|pid = 12063|charstring = Normal exit (2 jobs run)
eventno = None|eventtype = SYSLOG|origin = n30-toshiba|timestamp = 1308409283|timestampusec = 0|hostname = n30-toshiba|daemon = dhclient|pid = None|charstring = DHCPREQUEST of 192.168.2.56 on wlan0 to 192.168.2.1 port 67
eventno = None|eventtype = SYSLOG|origin = n30-toshiba|timestamp = 1308409283|timestampusec = 0|hostname = n30-toshiba|daemon = dhclient|pid = None|charstring = DHCPACK of 192.168.2.56 from 192.168.2.1
eventno = None|eventtype = SYSLOG|origin = n30-toshiba|timestamp = 1308409283|timestampusec = 0|hostname = n30-toshiba|daemon = dhclient|pid = None|charstring = bound to 192.168.2.56 -- renewal in 2657 seconds.
eventno = None|eventtype = SYSLOG|origin = n30-toshiba|timestamp = 1308410221|timestampusec = 0|hostname = n30-toshiba|daemon = CRON|pid = 13067|charstring = (root) CMD (   cd / && run-parts --report /etc/cron.hourly)
eventno = None|eventtype = SYSLOG|origin = n30-toshiba|timestamp = 1308410299|timestampusec = 0|hostname = n30-toshiba|daemon = kernel|pid = None|charstring = [39424.592253] EXT4-fs (loop0): re-mounted. Opts: errors=remount-ro,user_xattr,commit=600
eventno = None|eventtype = SYSLOG|origin = n30-toshiba|timestamp = 1308410299|timestampusec = 0|hostname = n30-toshiba|daemon = kernel|pid = None|charstring = [39424.655345] toshiba_acpi: Unknown key e00
eventno = None|eventtype = SYSLOG|origin = n30-toshiba|timestamp = 1308410357|timestampusec = 0|hostname = n30-toshiba|daemon = anacron|pid = 13218|charstring = Anacron 2.3 started on 2011-06-18
eventno = None|eventtype = SYSLOG|origin = n30-toshiba|timestamp = 1308410357|timestampusec = 0|hostname = n30-toshiba|daemon = anacron|pid = 13218|charstring = Normal exit (0 jobs run)
eventno = None|eventtype = SYSLOG|origin = n30-toshiba|timestamp = 1308410357|timestampusec = 0|hostname = n30-toshiba|daemon = kernel|pid = None|charstring = [39483.288696] EXT4-fs (loop0): re-mounted. Opts: errors=remount-ro,user_xattr,commit=0
eventno = None|eventtype = SYSLOG|origin = n30-toshiba|timestamp = 1308411146|timestampusec = 0|hostname = n30-toshiba|daemon = wpa_supplicant|pid = 1276|charstring = WPA: Group rekeying completed with 00:23:69:85:a8:28 [GTK=TKIP]
eventno = None|eventtype = SYSLOG|origin = n30-toshiba|timestamp = 1308411146|timestampusec = 0|hostname = n30-toshiba|daemon = NetworkManager|pid = 1136|charstring = <info> (wlan0): supplicant connection state:  completed -> group handshake
eventno = None|eventtype = SYSLOG|origin = n30-toshiba|timestamp = 1308411146|timestampusec = 0|hostname = n30-toshiba|daemon = NetworkManager|pid = 1136|charstring = <info> (wlan0): supplicant connection state:  group handshake -> completed
eventno = None|eventtype = SYSLOG|origin = n30-toshiba|timestamp = 1308411146|timestampusec = 0|hostname = n30-toshiba|daemon = wpa_supplicant|pid = 1276|charstring = WPA: Group rekeying completed with 00:23:69:85:a8:28 [GTK=TKIP]
eventno = None|eventtype = SYSLOG|origin = n30-toshiba|timestamp = 1308411146|timestampusec = 0|hostname = n30-toshiba|daemon = NetworkManager|pid = 1136|charstring = <info> (wlan0): supplicant connection state:  completed -> group handshake
eventno = None|eventtype = SYSLOG|origin = n30-toshiba|timestamp = 1308411146|timestampusec = 0|hostname = n30-toshiba|daemon = NetworkManager|pid = 1136|charstring = <info> (wlan0): supplicant connection state:  group handshake -> completed
eventno = None|eventtype = SYSLOG|origin = n30-toshiba|timestamp = 1308411940|timestampusec = 0|hostname = n30-toshiba|daemon = dhclient|pid = None|charstring = DHCPREQUEST of 192.168.2.56 on wlan0 to 192.168.2.1 port 67
eventno = None|eventtype = SYSLOG|origin = n30-toshiba|timestamp = 1308411940|timestampusec = 0|hostname = n30-toshiba|daemon = dhclient|pid = None|charstring = DHCPACK of 192.168.2.56 from 192.168.2.1
eventno = None|eventtype = SYSLOG|origin = n30-toshiba|timestamp = 1308411940|timestampusec = 0|hostname = n30-toshiba|daemon = dhclient|pid = None|charstring = bound to 192.168.2.56 -- renewal in 2954 seconds.
eventno = None|eventtype = SYSLOG|origin = n30-toshiba|timestamp = 1308412599|timestampusec = 0|hostname = n30-toshiba|daemon = kernel|pid = None|charstring = [41723.860210] EXT4-fs (loop0): re-mounted. Opts: errors=remount-ro,user_xattr,commit=600
eventno = None|eventtype = SYSLOG|origin = n30-toshiba|timestamp = 1308412599|timestampusec = 0|hostname = n30-toshiba|daemon = kernel|pid = None|charstring = [41724.190447] toshiba_acpi: Unknown key e00
eventno = None|eventtype = SYSLOG|origin = n30-toshiba|timestamp = 1308412600|timestampusec = 0|hostname = n30-toshiba|daemon = kernel|pid = None|charstring = [41724.265731] usb 2-1.2: USB disconnect, address 3
eventno = None|eventtype = SYSLOG|origin = n30-toshiba|timestamp = 1308413234|timestampusec = 0|hostname = n30-toshiba|daemon = anacron|pid = 14349|charstring = Anacron 2.3 started on 2011-06-18
eventno = None|eventtype = SYSLOG|origin = n30-toshiba|timestamp = 1308413234|timestampusec = 0|hostname = n30-toshiba|daemon = anacron|pid = 14349|charstring = Normal exit (0 jobs run)
eventno = None|eventtype = SYSLOG|origin = n30-toshiba|timestamp = 1308413234|timestampusec = 0|hostname = n30-toshiba|daemon = kernel|pid = None|charstring = [42358.465781] EXT4-fs (loop0): re-mounted. Opts: errors=remount-ro,user_xattr,commit=0
eventno = None|eventtype = SYSLOG|origin = n30-toshiba|timestamp = 1308413247|timestampusec = 0|hostname = n30-toshiba|daemon = kernel|pid = None|charstring = [42371.672583] usb 2-1.2: new low speed USB device using ehci_hcd and address 4
eventno = None|eventtype = SYSLOG|origin = n30-toshiba|timestamp = 1308413247|timestampusec = 0|hostname = n30-toshiba|daemon = kernel|pid = None|charstring = [42371.789653] input: Dell Dell USB Optical Mouse as /devices/pci0000:00/0000:00:1d.0/usb2/2-1/2-1.2/2-1.2:1.0/input/input9
eventno = None|eventtype = SYSLOG|origin = n30-toshiba|timestamp = 1308413247|timestampusec = 0|hostname = n30-toshiba|daemon = kernel|pid = None|charstring = [42371.789861] generic-usb 0003:413C:3012.0002: input,hidraw0: USB HID v1.11 Mouse [Dell Dell USB Optical Mouse] on usb-0000:00:1d.0-1.2/input0
eventno = None|eventtype = SYSLOG|origin = n30-toshiba|timestamp = 1308413821|timestampusec = 0|hostname = n30-toshiba|daemon = CRON|pid = 14880|charstring = (root) CMD (   cd / && run-parts --report /etc/cron.hourly)
eventno = None|eventtype = SYSLOG|origin = n30-toshiba|timestamp = 1308414740|timestampusec = 0|hostname = n30-toshiba|daemon = wpa_supplicant|pid = 1276|charstring = WPA: Group rekeying completed with 00:23:69:85:a8:28 [GTK=TKIP]
eventno = None|eventtype = SYSLOG|origin = n30-toshiba|timestamp = 1308414740|timestampusec = 0|hostname = n30-toshiba|daemon = NetworkManager|pid = 1136|charstring = <info> (wlan0): supplicant connection state:  completed -> group handshake
eventno = None|eventtype = SYSLOG|origin = n30-toshiba|timestamp = 1308414740|timestampusec = 0|hostname = n30-toshiba|daemon = NetworkManager|pid = 1136|charstring = <info> (wlan0): supplicant connection state:  group handshake -> completed
eventno = None|eventtype = SYSLOG|origin = n30-toshiba|timestamp = 1308414740|timestampusec = 0|hostname = n30-toshiba|daemon = wpa_supplicant|pid = 1276|charstring = WPA: Group rekeying completed with 00:23:69:85:a8:28 [GTK=TKIP]
eventno = None|eventtype = SYSLOG|origin = n30-toshiba|timestamp = 1308414740|timestampusec = 0|hostname = n30-toshiba|daemon = NetworkManager|pid = 1136|charstring = <info> (wlan0): supplicant connection state:  completed -> group handshake
eventno = None|eventtype = SYSLOG|origin = n30-toshiba|timestamp = 1308414740|timestampusec = 0|hostname = n30-toshiba|daemon = NetworkManager|pid = 1136|charstring = <info> (wlan0): supplicant connection state:  group handshake -> completed
eventno = None|eventtype = SYSLOG|origin = n30-toshiba|timestamp = 1308414894|timestampusec = 0|hostname = n30-toshiba|daemon = dhclient|pid = None|charstring = DHCPREQUEST of 192.168.2.56 on wlan0 to 192.168.2.1 port 67
eventno = None|eventtype = SYSLOG|origin = n30-toshiba|timestamp = 1308414894|timestampusec = 0|hostname = n30-toshiba|daemon = dhclient|pid = None|charstring = DHCPACK of 192.168.2.56 from 192.168.2.1
eventno = None|eventtype = SYSLOG|origin = n30-toshiba|timestamp = 1308414894|timestampusec = 0|hostname = n30-toshiba|daemon = dhclient|pid = None|charstring = bound to 192.168.2.56 -- renewal in 2389 seconds.
eventno = None|eventtype = SYSLOG|origin = n30-toshiba|timestamp = 1308417283|timestampusec = 0|hostname = n30-toshiba|daemon = dhclient|pid = None|charstring = DHCPREQUEST of 192.168.2.56 on wlan0 to 192.168.2.1 port 67
eventno = None|eventtype = SYSLOG|origin = n30-toshiba|timestamp = 1308417283|timestampusec = 0|hostname = n30-toshiba|daemon = dhclient|pid = None|charstring = DHCPACK of 192.168.2.56 from 192.168.2.1
eventno = None|eventtype = SYSLOG|origin = n30-toshiba|timestamp = 1308417283|timestampusec = 0|hostname = n30-toshiba|daemon = dhclient|pid = None|charstring = bound to 192.168.2.56 -- renewal in 2340 seconds.
eventno = None|eventtype = SYSLOG|origin = n30-toshiba|timestamp = 1308417421|timestampusec = 0|hostname = n30-toshiba|daemon = CRON|pid = 17992|charstring = (root) CMD (   cd / && run-parts --report /etc/cron.hourly)
eventno = None|eventtype = SYSLOG|origin = n30-toshiba|timestamp = 1308418333|timestampusec = 0|hostname = n30-toshiba|daemon = wpa_supplicant|pid = 1276|charstring = WPA: Group rekeying completed with 00:23:69:85:a8:28 [GTK=TKIP]
eventno = None|eventtype = SYSLOG|origin = n30-toshiba|timestamp = 1308418333|timestampusec = 0|hostname = n30-toshiba|daemon = NetworkManager|pid = 1136|charstring = <info> (wlan0): supplicant connection state:  completed -> group handshake
eventno = None|eventtype = SYSLOG|origin = n30-toshiba|timestamp = 1308418333|timestampusec = 0|hostname = n30-toshiba|daemon = NetworkManager|pid = 1136|charstring = <info> (wlan0): supplicant connection state:  group handshake -> completed
eventno = None|eventtype = SYSLOG|origin = n30-toshiba|timestamp = 1308418333|timestampusec = 0|hostname = n30-toshiba|daemon = wpa_supplicant|pid = 1276|charstring = WPA: Group rekeying completed with 00:23:69:85:a8:28 [GTK=TKIP]
eventno = None|eventtype = SYSLOG|origin = n30-toshiba|timestamp = 1308418333|timestampusec = 0|hostname = n30-toshiba|daemon = NetworkManager|pid = 1136|charstring = <info> (wlan0): supplicant connection state:  completed -> group handshake
eventno = None|eventtype = SYSLOG|origin = n30-toshiba|timestamp = 1308418333|timestampusec = 0|hostname = n30-toshiba|daemon = NetworkManager|pid = 1136|charstring = <info> (wlan0): supplicant connection state:  group handshake -> completed
eventno = None|eventtype = SYSLOG|origin = n30-toshiba|timestamp = 1308419623|timestampusec = 0|hostname = n30-toshiba|daemon = dhclient|pid = None|charstring = DHCPREQUEST of 192.168.2.56 on wlan0 to 192.168.2.1 port 67
eventno = None|eventtype = SYSLOG|origin = n30-toshiba|timestamp = 1308419623|timestampusec = 0|hostname = n30-toshiba|daemon = dhclient|pid = None|charstring = DHCPACK of 192.168.2.56 from 192.168.2.1
eventno = None|eventtype = SYSLOG|origin = n30-toshiba|timestamp = 1308419623|timestampusec = 0|hostname = n30-toshiba|daemon = dhclient|pid = None|charstring = bound to 192.168.2.56 -- renewal in 2803 seconds.
eventno = None|eventtype = SYSLOG|origin = n30-toshiba|timestamp = 1308421021|timestampusec = 0|hostname = n30-toshiba|daemon = CRON|pid = 20611|charstring = (root) CMD (   cd / && run-parts --report /etc/cron.hourly)
eventno = None|eventtype = SYSLOG|origin = n30-toshiba|timestamp = 1308421925|timestampusec = 0|hostname = n30-toshiba|daemon = wpa_supplicant|pid = 1276|charstring = WPA: Group rekeying completed with 00:23:69:85:a8:28 [GTK=TKIP]
eventno = None|eventtype = SYSLOG|origin = n30-toshiba|timestamp = 1308421925|timestampusec = 0|hostname = n30-toshiba|daemon = NetworkManager|pid = 1136|charstring = <info> (wlan0): supplicant connection state:  completed -> group handshake
eventno = None|eventtype = SYSLOG|origin = n30-toshiba|timestamp = 1308421925|timestampusec = 0|hostname = n30-toshiba|daemon = NetworkManager|pid = 1136|charstring = <info> (wlan0): supplicant connection state:  group handshake -> completed
eventno = None|eventtype = SYSLOG|origin = n30-toshiba|timestamp = 1308421925|timestampusec = 0|hostname = n30-toshiba|daemon = wpa_supplicant|pid = 1276|charstring = WPA: Group rekeying completed with 00:23:69:85:a8:28 [GTK=TKIP]
eventno = None|eventtype = SYSLOG|origin = n30-toshiba|timestamp = 1308421925|timestampusec = 0|hostname = n30-toshiba|daemon = NetworkManager|pid = 1136|charstring = <info> (wlan0): supplicant connection state:  completed -> group handshake
eventno = None|eventtype = SYSLOG|origin = n30-toshiba|timestamp = 1308421925|timestampusec = 0|hostname = n30-toshiba|daemon = NetworkManager|pid = 1136|charstring = <info> (wlan0): supplicant connection state:  group handshake -> completed
eventno = None|eventtype = SYSLOG|origin = n30-toshiba|timestamp = 1308422426|timestampusec = 0|hostname = n30-toshiba|daemon = dhclient|pid = None|charstring = DHCPREQUEST of 192.168.2.56 on wlan0 to 192.168.2.1 port 67
eventno = None|eventtype = SYSLOG|origin = n30-toshiba|timestamp = 1308422426|timestampusec = 0|hostname = n30-toshiba|daemon = dhclient|pid = None|charstring = DHCPACK of 192.168.2.56 from 192.168.2.1
eventno = None|eventtype = SYSLOG|origin = n30-toshiba|timestamp = 1308422426|timestampusec = 0|hostname = n30-toshiba|daemon = dhclient|pid = None|charstring = bound to 192.168.2.56 -- renewal in 2901 seconds.
eventno = None|eventtype = SYSLOG|origin = n30-toshiba|timestamp = 1308424621|timestampusec = 0|hostname = n30-toshiba|daemon = CRON|pid = 23948|charstring = (root) CMD (   cd / && run-parts --report /etc/cron.hourly)
eventno = None|eventtype = SYSLOG|origin = n30-toshiba|timestamp = 1308424811|timestampusec = 0|hostname = n30-toshiba|daemon = kernel|pid = None|charstring = [53928.607022] EXT4-fs (loop0): re-mounted. Opts: errors=remount-ro,user_xattr,commit=600
eventno = None|eventtype = SYSLOG|origin = n30-toshiba|timestamp = 1308424811|timestampusec = 0|hostname = n30-toshiba|daemon = kernel|pid = None|charstring = [53928.940834] toshiba_acpi: Unknown key e00
eventno = None|eventtype = SYSLOG|origin = n30-toshiba|timestamp = 1308424812|timestampusec = 0|hostname = n30-toshiba|daemon = anacron|pid = 24329|charstring = Anacron 2.3 started on 2011-06-18
eventno = None|eventtype = SYSLOG|origin = n30-toshiba|timestamp = 1308424812|timestampusec = 0|hostname = n30-toshiba|daemon = anacron|pid = 24329|charstring = Normal exit (0 jobs run)
eventno = None|eventtype = SYSLOG|origin = n30-toshiba|timestamp = 1308424812|timestampusec = 0|hostname = n30-toshiba|daemon = kernel|pid = None|charstring = [53929.184907] EXT4-fs (loop0): re-mounted. Opts: errors=remount-ro,user_xattr,commit=0
eventno = None|eventtype = SYSLOG|origin = n30-toshiba|timestamp = 1308425327|timestampusec = 0|hostname = n30-toshiba|daemon = dhclient|pid = None|charstring = DHCPREQUEST of 192.168.2.56 on wlan0 to 192.168.2.1 port 67
eventno = None|eventtype = SYSLOG|origin = n30-toshiba|timestamp = 1308425327|timestampusec = 0|hostname = n30-toshiba|daemon = dhclient|pid = None|charstring = DHCPACK of 192.168.2.56 from 192.168.2.1
eventno = None|eventtype = SYSLOG|origin = n30-toshiba|timestamp = 1308425327|timestampusec = 0|hostname = n30-toshiba|daemon = dhclient|pid = None|charstring = bound to 192.168.2.56 -- renewal in 2874 seconds.
eventno = None|eventtype = SYSLOG|origin = n30-toshiba|timestamp = 1308425526|timestampusec = 0|hostname = n30-toshiba|daemon = wpa_supplicant|pid = 1276|charstring = WPA: Group rekeying completed with 00:23:69:85:a8:28 [GTK=TKIP]
eventno = None|eventtype = SYSLOG|origin = n30-toshiba|timestamp = 1308425526|timestampusec = 0|hostname = n30-toshiba|daemon = NetworkManager|pid = 1136|charstring = <info> (wlan0): supplicant connection state:  completed -> group handshake
eventno = None|eventtype = SYSLOG|origin = n30-toshiba|timestamp = 1308425526|timestampusec = 0|hostname = n30-toshiba|daemon = NetworkManager|pid = 1136|charstring = <info> (wlan0): supplicant connection state:  group handshake -> completed
eventno = None|eventtype = SYSLOG|origin = n30-toshiba|timestamp = 1308425526|timestampusec = 0|hostname = n30-toshiba|daemon = wpa_supplicant|pid = 1276|charstring = WPA: Group rekeying completed with 00:23:69:85:a8:28 [GTK=TKIP]
eventno = None|eventtype = SYSLOG|origin = n30-toshiba|timestamp = 1308425526|timestampusec = 0|hostname = n30-toshiba|daemon = NetworkManager|pid = 1136|charstring = <info> (wlan0): supplicant connection state:  completed -> group handshake
eventno = None|eventtype = SYSLOG|origin = n30-toshiba|timestamp = 1308425526|timestampusec = 0|hostname = n30-toshiba|daemon = NetworkManager|pid = 1136|charstring = <info> (wlan0): supplicant connection state:  group handshake -> completed
eventno = None|eventtype = SYSLOG|origin = n30-toshiba|timestamp = 1308428201|timestampusec = 0|hostname = n30-toshiba|daemon = dhclient|pid = None|charstring = DHCPREQUEST of 192.168.2.56 on wlan0 to 192.168.2.1 port 67
eventno = None|eventtype = SYSLOG|origin = n30-toshiba|timestamp = 1308428201|timestampusec = 0|hostname = n30-toshiba|daemon = dhclient|pid = None|charstring = DHCPACK of 192.168.2.56 from 192.168.2.1
eventno = None|eventtype = SYSLOG|origin = n30-toshiba|timestamp = 1308428201|timestampusec = 0|hostname = n30-toshiba|daemon = dhclient|pid = None|charstring = bound to 192.168.2.56 -- renewal in 2849 seconds.
eventno = None|eventtype = SYSLOG|origin = n30-toshiba|timestamp = 1308428221|timestampusec = 0|hostname = n30-toshiba|daemon = CRON|pid = 26673|charstring = (root) CMD (   cd / && run-parts --report /etc/cron.hourly)
eventno = None|eventtype = SYSLOG|origin = n30-toshiba|timestamp = 1308429112|timestampusec = 0|hostname = n30-toshiba|daemon = wpa_supplicant|pid = 1276|charstring = WPA: Group rekeying completed with 00:23:69:85:a8:28 [GTK=TKIP]
eventno = None|eventtype = SYSLOG|origin = n30-toshiba|timestamp = 1308429112|timestampusec = 0|hostname = n30-toshiba|daemon = NetworkManager|pid = 1136|charstring = <info> (wlan0): supplicant connection state:  completed -> group handshake
eventno = None|eventtype = SYSLOG|origin = n30-toshiba|timestamp = 1308429112|timestampusec = 0|hostname = n30-toshiba|daemon = NetworkManager|pid = 1136|charstring = <info> (wlan0): supplicant connection state:  group handshake -> completed
eventno = None|eventtype = SYSLOG|origin = n30-toshiba|timestamp = 1308429112|timestampusec = 0|hostname = n30-toshiba|daemon = wpa_supplicant|pid = 1276|charstring = WPA: Group rekeying completed with 00:23:69:85:a8:28 [GTK=TKIP]
eventno = None|eventtype = SYSLOG|origin = n30-toshiba|timestamp = 1308429112|timestampusec = 0|hostname = n30-toshiba|daemon = NetworkManager|pid = 1136|charstring = <info> (wlan0): supplicant connection state:  completed -> group handshake
eventno = None|eventtype = SYSLOG|origin = n30-toshiba|timestamp = 1308429112|timestampusec = 0|hostname = n30-toshiba|daemon = NetworkManager|pid = 1136|charstring = <info> (wlan0): supplicant connection state:  group handshake -> completed
eventno = None|eventtype = SYSLOG|origin = n30-toshiba|timestamp = 1308431050|timestampusec = 0|hostname = n30-toshiba|daemon = dhclient|pid = None|charstring = DHCPREQUEST of 192.168.2.56 on wlan0 to 192.168.2.1 port 67
eventno = None|eventtype = SYSLOG|origin = n30-toshiba|timestamp = 1308431050|timestampusec = 0|hostname = n30-toshiba|daemon = dhclient|pid = None|charstring = DHCPACK of 192.168.2.56 from 192.168.2.1
eventno = None|eventtype = SYSLOG|origin = n30-toshiba|timestamp = 1308431050|timestampusec = 0|hostname = n30-toshiba|daemon = dhclient|pid = None|charstring = bound to 192.168.2.56 -- renewal in 2772 seconds.
eventno = None|eventtype = SYSLOG|origin = n30-toshiba|timestamp = 1308431821|timestampusec = 0|hostname = n30-toshiba|daemon = CRON|pid = 27638|charstring = (root) CMD (   cd / && run-parts --report /etc/cron.hourly)
Wrote 95 events to database
+=============+
| Statistics  |
+=============+
Parsing Failures     : 0
Total Input Records  : 95
Parsed Successfully  : 95
Events Output        : 95
