#############################################
#    Raw Data to Events Normalizer - v0.1a  #
#############################################
Input file: ../saf-data/db//../rawdata/access_combined.log
Output file: /tmp/temp/apache.sqlite
Plugin attributes (with default values): 
	eventno = None
	eventtype = None
	origin = None
	timestamp = None
	timestampusec = None
	sipaddr = None
	identd = None
	remoteuser = None
	httpreq = None
	httpstatus = None
	contentlength = None
	referrer = None
	useragent = None
Connecting to output database /tmp/temp/apache.sqlite
Parsing records..
eventno = None|eventtype = APACHE_COMBINED|origin = None|timestamp = 1284102465|timestampusec = 0|sipaddr = 177.23.21.50|identd = -|remoteuser = -|httpreq = "GET /flower_store/product.screen?product_id=FL-DSH-01 HTTP/1.1"|httpstatus = 200|contentlength = 10901|referrer = "http://mystore.splunk.com/flower_store/category.screen?category_id=PLANTS&JSESSIONID=SD7SL1FF9ADFF2"|useragent = "Mozilla/5.0 (X11; U; Linux i686; en-US; rv:1.8.0.10) Gecko/20070223 CentOS/1.5.0.10-0.1.el4.centos Firefox/1.5.0.10"
eventno = None|eventtype = APACHE_COMBINED|origin = None|timestamp = 1284102478|timestampusec = 0|sipaddr = 233.77.49.54|identd = -|remoteuser = -|httpreq = "GET /flower_store/product.screen?product_id=K9-BD-01 HTTP/1.1"|httpstatus = 200|contentlength = 10901|referrer = "http://mystore.splunk.com/flower_store/category.screen?category_id=FLOWERS&JSESSIONID=SD7SL1FF9ADFF2"|useragent = "Mozilla/5.0 (X11; U; Linux i686; en-US; rv:1.8.0.10) Gecko/20070223 CentOS/1.5.0.10-0.1.el4.centos Firefox/1.5.0.10"
eventno = None|eventtype = APACHE_COMBINED|origin = None|timestamp = 1284102506|timestampusec = 0|sipaddr = 10.32.1.37|identd = -|remoteuser = -|httpreq = "GET /flower_store/product.screen?product_id=FL-DSH-01 HTTP/1.1"|httpstatus = 404|contentlength = 10901|referrer = "http://mystore.splunk.com/flower_store/category.screen?category_id=FLOWERS&JSESSIONID=SD7SL1FF9ADFF2"|useragent = "Mozilla/5.0 (X11; U; Linux i686; en-US; rv:1.8.0.10) Gecko/20070223 CentOS/1.5.0.10-0.1.el4.centos Firefox/1.5.0.10"
eventno = None|eventtype = APACHE_COMBINED|origin = None|timestamp = 1284102529|timestampusec = 0|sipaddr = 192.168.11.38|identd = -|remoteuser = -|httpreq = "GET /flower_store/product.screen?product_id=RP-LI-02 HTTP/1.1"|httpstatus = 301|contentlength = 10901|referrer = "http://mystore.splunk.com/flower_store/category.screen?category_id=FLOWERS&JSESSIONID=SD7SL1FF9ADFF2"|useragent = "Mozilla/5.0 (X11; U; Linux i686; en-US; rv:1.8.0.10) Gecko/20070223 CentOS/1.5.0.10-0.1.el4.centos Firefox/1.5.0.10"
eventno = None|eventtype = APACHE_COMBINED|origin = None|timestamp = 1284102540|timestampusec = 0|sipaddr = 10.32.1.48|identd = -|remoteuser = -|httpreq = "POST /flower_store/order.do HTTP/1.1"|httpstatus = 200|contentlength = 14392|referrer = "http://mystore.splunk.com/flower_store/enter_order_information.screen&JSESSIONID=SD7SL1FF9ADFF2"|useragent = "Mozilla/5.0 (X11; U; Linux i686; en-US; rv:1.8.0.10) Gecko/20070223 CentOS/1.5.0.10-0.1.el4.centos Firefox/1.5.0.10"
eventno = None|eventtype = APACHE_COMBINED|origin = None|timestamp = 1284102780|timestampusec = 0|sipaddr = 192.1.2.41|identd = -|remoteuser = -|httpreq = "GET /flower_store/category.screen?category_id=FLOWERS HTTP/1.1"|httpstatus = 200|contentlength = 10660|referrer = "http://mystore.splunk.com/flower_store/cart.do?action=purchase&itemId=EST-14&JSESSIONID=SD7SL1FF9ADFF2"|useragent = "Mozilla/5.0 (X11; U; Linux i686; en-US; rv:1.8.0.10) Gecko/20070223 CentOS/1.5.0.10-0.1.el4.centos Firefox/1.5.0.10"
eventno = None|eventtype = APACHE_COMBINED|origin = None|timestamp = 1284102884|timestampusec = 0|sipaddr = 178.19.3.38|identd = -|remoteuser = -|httpreq = "GET /flower_store/category.screen?category_id=FLOWERS HTTP/1.1"|httpstatus = 200|contentlength = 10577|referrer = "http://mystore.splunk.com/flower_store/cart.do?action=purchase&itemId=EST-13&JSESSIONID=SD7SL1FF9ADFF2"|useragent = "Mozilla/5.0 (X11; U; Linux i686; en-US; rv:1.8.0.10) Gecko/20070223 CentOS/1.5.0.10-0.1.el4.centos Firefox/1.5.0.10"
eventno = None|eventtype = APACHE_COMBINED|origin = None|timestamp = 1284102900|timestampusec = 0|sipaddr = 10.32.1.52|identd = -|remoteuser = -|httpreq = "GET /flower_store/cart.do?action=purchase&itemId=EST-14 HTTP/1.1"|httpstatus = 200|contentlength = 11769|referrer = "http://mystore.splunk.com/flower_store/product.screen?product_id=FI-FW-02&JSESSIONID=SD7SL1FF9ADFF2"|useragent = "Mozilla/5.0 (X11; U; Linux i686; en-US; rv:1.8.0.10) Gecko/20070223 CentOS/1.5.0.10-0.1.el4.centos Firefox/1.5.0.10"
eventno = None|eventtype = APACHE_COMBINED|origin = None|timestamp = 1284102956|timestampusec = 0|sipaddr = 10.2.91.52|identd = -|remoteuser = -|httpreq = "GET /flower_store/product.screen?product_id=RP-SN-01 HTTP/1.1"|httpstatus = 200|contentlength = 10582|referrer = "http://mystore.splunk.com/flower_store/category.screen?category_id=BALLOONS&JSESSIONID=SD7SL1FF9ADFF2"|useragent = "Mozilla/5.0 (X11; U; Linux i686; en-US; rv:1.8.0.10) Gecko/20070223 CentOS/1.5.0.10-0.1.el4.centos Firefox/1.5.0.10"
eventno = None|eventtype = APACHE_COMBINED|origin = None|timestamp = 1284103080|timestampusec = 0|sipaddr = 177.23.21.55|identd = -|remoteuser = -|httpreq = "GET /flower_store/category.screen?category_id=GIFTS HTTP/1.1"|httpstatus = 200|contentlength = 10581|referrer = "http://mystore.splunk.com/flower_store/cart.do?action=purchase&itemId=EST-1&JSESSIONID=SD7SL1FF9ADFF2"|useragent = "Mozilla/5.0 (X11; U; Linux i686; en-US; rv:1.8.0.10) Gecko/20070223 CentOS/1.5.0.10-0.1.el4.centos Firefox/1.5.0.10"
eventno = None|eventtype = APACHE_COMBINED|origin = None|timestamp = 1284103136|timestampusec = 0|sipaddr = 10.2.91.34|identd = -|remoteuser = -|httpreq = "GET /flower_store/cart.do?action=purchase&itemId=EST-18 HTTP/1.1"|httpstatus = 200|contentlength = 13644|referrer = "http://mystore.splunk.com/flower_store/product.screen?product_id=FL-DSH-01&JSESSIONID=SD7SL1FF9ADFF2"|useragent = "Mozilla/5.0 (X11; U; Linux i686; en-US; rv:1.8.0.10) Gecko/20070223 CentOS/1.5.0.10-0.1.el4.centos Firefox/1.5.0.10"
eventno = None|eventtype = APACHE_COMBINED|origin = None|timestamp = 1284103200|timestampusec = 0|sipaddr = 178.19.3.39|identd = -|remoteuser = -|httpreq = "GET /flower_store/product.screen?product_id=AV-CB-01 HTTP/1.1"|httpstatus = 200|contentlength = 10903|referrer = "http://mystore.splunk.com/flower_store/category.screen?category_id=FLOWERS&JSESSIONID=SD7SL1FF9ADFF2"|useragent = "Mozilla/5.0 (X11; U; Linux i686; en-US; rv:1.8.0.10) Gecko/20070223 CentOS/1.5.0.10-0.1.el4.centos Firefox/1.5.0.10"
eventno = None|eventtype = APACHE_COMBINED|origin = None|timestamp = 1284103260|timestampusec = 0|sipaddr = 178.19.3.46|identd = -|remoteuser = -|httpreq = "GET /flower_store/category.screen?category_id=FLOWERS HTTP/1.1"|httpstatus = 200|contentlength = 10581|referrer = "http://mystore.splunk.com/flower_store/cart.do?action=purchase&itemId=EST-16&JSESSIONID=SD7SL1FF9ADFF2"|useragent = "Mozilla/5.0 (X11; U; Linux i686; en-US; rv:1.8.0.10) Gecko/20070223 CentOS/1.5.0.10-0.1.el4.centos Firefox/1.5.0.10"
eventno = None|eventtype = APACHE_COMBINED|origin = None|timestamp = 1284103320|timestampusec = 0|sipaddr = 10.2.91.48|identd = -|remoteuser = -|httpreq = "GET /flower_store/cart.do?action=update&itemQuantity_EST-19=4&itemQuantity_EST-18=4 HTTP/1.1"|httpstatus = 200|contentlength = 12600|referrer = "http://mystore.splunk.com/flower_store/cart.do?action=purchase&itemId=EST-12&JSESSIONID=SD7SL1FF9ADFF2"|useragent = "Mozilla/5.0 (X11; U; Linux i686; en-US; rv:1.8.0.10) Gecko/20070223 CentOS/1.5.0.10-0.1.el4.centos Firefox/1.5.0.10"
eventno = None|eventtype = APACHE_COMBINED|origin = None|timestamp = 1284103398|timestampusec = 0|sipaddr = 10.2.91.29|identd = -|remoteuser = -|httpreq = "GET /flower_store/cart.do?action=purchase&itemId=EST-20 HTTP/1.1"|httpstatus = 200|contentlength = 13025|referrer = "http://mystore.splunk.com/flower_store/product.screen?product_id=K9-BD-01&JSESSIONID=SD7SL1FF9ADFF2"|useragent = "Mozilla/5.0 (X11; U; Linux i686; en-US; rv:1.8.0.10) Gecko/20070223 CentOS/1.5.0.10-0.1.el4.centos Firefox/1.5.0.10"
eventno = None|eventtype = APACHE_COMBINED|origin = None|timestamp = 1284103439|timestampusec = 0|sipaddr = 10.2.91.29|identd = -|remoteuser = -|httpreq = "GET /flower_store/product.screen?product_id=FI-FW-02 HTTP/1.1"|httpstatus = 200|contentlength = 10919|referrer = "http://mystore.splunk.com/flower_store/category.screen?category_id=GIFTS&JSESSIONID=SD7SL1FF9ADFF2"|useragent = "Mozilla/5.0 (X11; U; Linux i686; en-US; rv:1.8.0.10) Gecko/20070223 CentOS/1.5.0.10-0.1.el4.centos Firefox/1.5.0.10"
eventno = None|eventtype = APACHE_COMBINED|origin = None|timestamp = 1284103500|timestampusec = 0|sipaddr = 10.192.1.53|identd = -|remoteuser = -|httpreq = "GET /flower_store/category.screen?category_id=CANDY HTTP/1.1"|httpstatus = 200|contentlength = 10670|referrer = "http://mystore.splunk.com/flower_store/cart.do?action=purchase&itemId=EST-18&JSESSIONID=SD7SL1FF9ADFF2"|useragent = "Mozilla/5.0 (X11; U; Linux i686; en-US; rv:1.8.0.10) Gecko/20070223 CentOS/1.5.0.10-0.1.el4.centos Firefox/1.5.0.10"
eventno = None|eventtype = APACHE_COMBINED|origin = None|timestamp = 1284103560|timestampusec = 0|sipaddr = 233.77.49.29|identd = -|remoteuser = -|httpreq = "GET /flower_store/cart.do?action=purchase&itemId=EST-13 HTTP/1.1"|httpstatus = 200|contentlength = 12389|referrer = "http://mystore.splunk.com/flower_store/product.screen?product_id=K9-CW-01&JSESSIONID=SD7SL1FF9ADFF2"|useragent = "Mozilla/5.0 (X11; U; Linux i686; en-US; rv:1.8.0.10) Gecko/20070223 CentOS/1.5.0.10-0.1.el4.centos Firefox/1.5.0.10"
eventno = None|eventtype = APACHE_COMBINED|origin = None|timestamp = 1284103680|timestampusec = 0|sipaddr = 189.222.1.40|identd = -|remoteuser = -|httpreq = "GET /flower_store/product.screen?product_id=FL-DLH-02 HTTP/1.1"|httpstatus = 200|contentlength = 10582|referrer = "http://mystore.splunk.com/flower_store/category.screen?category_id=GIFTS&JSESSIONID=SD7SL1FF9ADFF2"|useragent = "Mozilla/5.0 (X11; U; Linux i686; en-US; rv:1.8.0.10) Gecko/20070223 CentOS/1.5.0.10-0.1.el4.centos Firefox/1.5.0.10"
eventno = None|eventtype = APACHE_COMBINED|origin = None|timestamp = 1284103740|timestampusec = 0|sipaddr = 187.231.45.32|identd = -|remoteuser = -|httpreq = "GET /flower_store/product.screen?product_id=FI-FW-02 HTTP/1.1"|httpstatus = 200|contentlength = 10911|referrer = "http://mystore.splunk.com/flower_store/category.screen?category_id=CANDY&JSESSIONID=SD7SL1FF9ADFF2"|useragent = "Mozilla/5.0 (X11; U; Linux i686; en-US; rv:1.8.0.10) Gecko/20070223 CentOS/1.5.0.10-0.1.el4.centos Firefox/1.5.0.10"
eventno = None|eventtype = APACHE_COMBINED|origin = None|timestamp = 1284103796|timestampusec = 0|sipaddr = 187.231.45.46|identd = -|remoteuser = -|httpreq = "GET /flower_store/main.screen HTTP/1.1"|httpstatus = 200|contentlength = 10686|referrer = "http://mystore.splunk.com/index.html&JSESSIONID=SD7SL1FF9ADFF2"|useragent = "Mozilla/5.0 (X11; U; Linux i686; en-US; rv:1.8.0.10) Gecko/20070223 CentOS/1.5.0.10-0.1.el4.centos Firefox/1.5.0.10"
eventno = None|eventtype = APACHE_COMBINED|origin = None|timestamp = 1284103860|timestampusec = 0|sipaddr = 233.77.49.48|identd = -|remoteuser = -|httpreq = "POST /flower_store/order.do HTTP/1.1"|httpstatus = 200|contentlength = 14392|referrer = "http://mystore.splunk.com/flower_store/enter_order_information.screen&JSESSIONID=SD7SL1FF9ADFF2"|useragent = "Mozilla/5.0 (X11; U; Linux i686; en-US; rv:1.8.0.10) Gecko/20070223 CentOS/1.5.0.10-0.1.el4.centos Firefox/1.5.0.10"
eventno = None|eventtype = APACHE_COMBINED|origin = None|timestamp = 1284103880|timestampusec = 0|sipaddr = 177.23.21.36|identd = -|remoteuser = -|httpreq = "GET /flower_store/product.screen?product_id=FI-SW-01 HTTP/1.1"|httpstatus = 200|contentlength = 10572|referrer = "http://mystore.splunk.com/flower_store/category.screen?category_id=FLOWERS&JSESSIONID=SD7SL1FF9ADFF2"|useragent = "Mozilla/5.0 (X11; U; Linux i686; en-US; rv:1.8.0.10) Gecko/20070223 CentOS/1.5.0.10-0.1.el4.centos Firefox/1.5.0.10"
eventno = None|eventtype = APACHE_COMBINED|origin = None|timestamp = 1284104000|timestampusec = 0|sipaddr = 10.32.1.31|identd = -|remoteuser = -|httpreq = "GET /flower_store/category.screen?category_id=GIFTS HTTP/1.1"|httpstatus = 200|contentlength = 10567|referrer = "http://mystore.splunk.com/flower_store/signon_welcome.screen&JSESSIONID=SD7SL1FF9ADFF2"|useragent = "Mozilla/5.0 (X11; U; Linux i686; en-US; rv:1.8.0.10) Gecko/20070223 CentOS/1.5.0.10-0.1.el4.centos Firefox/1.5.0.10"
eventno = None|eventtype = APACHE_COMBINED|origin = None|timestamp = 1284104185|timestampusec = 0|sipaddr = 192.168.11.46|identd = -|remoteuser = -|httpreq = "GET /flower_store/category.screen?category_id=PLANTS HTTP/1.1"|httpstatus = 200|contentlength = 10670|referrer = "http://mystore.splunk.com/flower_store/main.screen&JSESSIONID=SD7SL1FF9ADFF2"|useragent = "Mozilla/5.0 (X11; U; Linux i686; en-US; rv:1.8.0.10) Gecko/20070223 CentOS/1.5.0.10-0.1.el4.centos Firefox/1.5.0.10"
eventno = None|eventtype = APACHE_COMBINED|origin = None|timestamp = 1284104252|timestampusec = 0|sipaddr = 177.23.21.38|identd = -|remoteuser = -|httpreq = "GET /flower_store/product.screen?product_id=K9-BD-01 HTTP/1.1"|httpstatus = 200|contentlength = 10560|referrer = "http://mystore.splunk.com/flower_store/category.screen?category_id=GIFTS&JSESSIONID=SD7SL1FF9ADFF2"|useragent = "Mozilla/5.0 (X11; U; Linux i686; en-US; rv:1.8.0.10) Gecko/20070223 CentOS/1.5.0.10-0.1.el4.centos Firefox/1.5.0.10"
eventno = None|eventtype = APACHE_COMBINED|origin = None|timestamp = 1284104340|timestampusec = 0|sipaddr = 192.168.11.45|identd = -|remoteuser = -|httpreq = "GET /flower_store/item.screen?item_id=EST-11 HTTP/1.1"|httpstatus = 200|contentlength = 10151|referrer = "http://mystore.splunk.com/flower_store/product.screen?product_id=FI-SW-01&JSESSIONID=SD7SL1FF9ADFF2"|useragent = "Mozilla/5.0 (X11; U; Linux i686; en-US; rv:1.8.0.10) Gecko/20070223 CentOS/1.5.0.10-0.1.el4.centos Firefox/1.5.0.10"
eventno = None|eventtype = APACHE_COMBINED|origin = None|timestamp = 1284104429|timestampusec = 0|sipaddr = 192.0.1.43|identd = -|remoteuser = -|httpreq = "GET /flower_store/category.screen?category_id=FLOWERS HTTP/1.1"|httpstatus = 200|contentlength = 10577|referrer = "http://mystore.splunk.com/flower_store/main.screen&JSESSIONID=SD7SL1FF9ADFF2"|useragent = "Mozilla/5.0 (X11; U; Linux i686; en-US; rv:1.8.0.10) Gecko/20070223 CentOS/1.5.0.10-0.1.el4.centos Firefox/1.5.0.10"
eventno = None|eventtype = APACHE_COMBINED|origin = None|timestamp = 1284104460|timestampusec = 0|sipaddr = 187.231.45.53|identd = -|remoteuser = -|httpreq = "GET /flower_store/main.screen HTTP/1.1"|httpstatus = 200|contentlength = 10686|referrer = "http://mystore.splunk.com/index.html&JSESSIONID=SD7SL1FF9ADFF2"|useragent = "Mozilla/5.0 (X11; U; Linux i686; en-US; rv:1.8.0.10) Gecko/20070223 CentOS/1.5.0.10-0.1.el4.centos Firefox/1.5.0.10"
eventno = None|eventtype = APACHE_COMBINED|origin = None|timestamp = 1284104520|timestampusec = 0|sipaddr = 192.1.2.35|identd = -|remoteuser = -|httpreq = "POST /flower_store/order.do HTTP/1.1"|httpstatus = 200|contentlength = 14392|referrer = "http://mystore.splunk.com/flower_store/enter_order_information.screen&JSESSIONID=SD7SL1FF9ADFF2"|useragent = "Mozilla/5.0 (X11; U; Linux i686; en-US; rv:1.8.0.10) Gecko/20070223 CentOS/1.5.0.10-0.1.el4.centos Firefox/1.5.0.10"
eventno = None|eventtype = APACHE_COMBINED|origin = None|timestamp = 1284104555|timestampusec = 0|sipaddr = 192.168.11.36|identd = -|remoteuser = -|httpreq = "GET /flower_store/enter_order_information.screen HTTP/1.1"|httpstatus = 200|contentlength = 16702|referrer = "http://mystore.splunk.com/flower_store/enter_order_information.screen&JSESSIONID=SD7SL1FF9ADFF2"|useragent = "Mozilla/5.0 (X11; U; Linux i686; en-US; rv:1.8.0.10) Gecko/20070223 CentOS/1.5.0.10-0.1.el4.centos Firefox/1.5.0.10"
eventno = None|eventtype = APACHE_COMBINED|origin = None|timestamp = 1284104633|timestampusec = 0|sipaddr = 233.77.49.49|identd = -|remoteuser = -|httpreq = "GET /flower_store/enter_order_information.screen HTTP/1.1"|httpstatus = 200|contentlength = 12919|referrer = "http://mystore.splunk.com/flower_store/cart.do?action=update&itemQuantity_EST-19=4&itemQuantity_EST-18=4&JSESSIONID=SD7SL1FF9ADFF2"|useragent = "Mozilla/5.0 (X11; U; Linux i686; en-US; rv:1.8.0.10) Gecko/20070223 CentOS/1.5.0.10-0.1.el4.centos Firefox/1.5.0.10"
eventno = None|eventtype = APACHE_COMBINED|origin = None|timestamp = 1284104640|timestampusec = 0|sipaddr = 10.192.1.45|identd = -|remoteuser = -|httpreq = "GET /flower_store/category.screen?category_id=GIFTS HTTP/1.1"|httpstatus = 200|contentlength = 10591|referrer = "http://mystore.splunk.com/flower_store/main\\.screen&JSESSIONID=SD7SL1FF9ADFF2"|useragent = "Mozilla/5.0 (X11; U; Linux i686; en-US; rv:1.8.0.10) Gecko/20070223 CentOS/1.5.0.10-0.1.el4.centos Firefox/1.5.0.10"
eventno = None|eventtype = APACHE_COMBINED|origin = None|timestamp = 1284104686|timestampusec = 0|sipaddr = 189.222.1.50|identd = -|remoteuser = -|httpreq = "GET /flower_store/signoff.do HTTP/1.1"|httpstatus = 200|contentlength = 9662|referrer = "http://mystore.splunk.com/flower_store/order.do&JSESSIONID=SD7SL1FF9ADFF2"|useragent = "Mozilla/5.0 (X11; U; Linux i686; en-US; rv:1.8.0.10) Gecko/20070223 CentOS/1.5.0.10-0.1.el4.centos Firefox/1.5.0.10"
eventno = None|eventtype = APACHE_COMBINED|origin = None|timestamp = 1284104743|timestampusec = 0|sipaddr = 192.1.2.44|identd = -|remoteuser = -|httpreq = "POST /flower_store/order.do HTTP/1.1"|httpstatus = 200|contentlength = 14498|referrer = "http://mystore.splunk.com/flower_store/enter_order_information.screen&JSESSIONID=SD7SL1FF9ADFF2"|useragent = "Mozilla/5.0 (X11; U; Linux i686; en-US; rv:1.8.0.10) Gecko/20070223 CentOS/1.5.0.10-0.1.el4.centos Firefox/1.5.0.10"
eventno = None|eventtype = APACHE_COMBINED|origin = None|timestamp = 1284104819|timestampusec = 0|sipaddr = 192.0.1.50|identd = -|remoteuser = -|httpreq = "GET /flower_store/enter_order_information.screen HTTP/1.1"|httpstatus = 200|contentlength = 12919|referrer = "http://mystore.splunk.com/flower_store/cart.do?action=purchase&itemId=EST-7&JSESSIONID=SD7SL1FF9ADFF2"|useragent = "Mozilla/5.0 (X11; U; Linux i686; en-US; rv:1.8.0.10) Gecko/20070223 CentOS/1.5.0.10-0.1.el4.centos Firefox/1.5.0.10"
eventno = None|eventtype = APACHE_COMBINED|origin = None|timestamp = 1284104913|timestampusec = 0|sipaddr = 10.2.91.55|identd = -|remoteuser = -|httpreq = "GET /flower_store/cart.do?action=purchase&itemId=EST-17 HTTP/1.1"|httpstatus = 200|contentlength = 11756|referrer = "http://mystore.splunk.com/flower_store/item.screen?item_id=EST-17&JSESSIONID=SD7SL1FF9ADFF2"|useragent = "Mozilla/5.0 (X11; U; Linux i686; en-US; rv:1.8.0.10) Gecko/20070223 CentOS/1.5.0.10-0.1.el4.centos Firefox/1.5.0.10"
eventno = None|eventtype = APACHE_COMBINED|origin = None|timestamp = 1284104988|timestampusec = 0|sipaddr = 10.32.1.46|identd = -|remoteuser = -|httpreq = "GET /flower_store/product.screen?product_id=FI-SW-01 HTTP/1.1"|httpstatus = 200|contentlength = 10929|referrer = "http://mystore.splunk.com/flower_store/category.screen?category_id=FLOWERS&JSESSIONID=SD7SL1FF9ADFF2"|useragent = "Mozilla/5.0 (X11; U; Linux i686; en-US; rv:1.8.0.10) Gecko/20070223 CentOS/1.5.0.10-0.1.el4.centos Firefox/1.5.0.10"
eventno = None|eventtype = APACHE_COMBINED|origin = None|timestamp = 1284105000|timestampusec = 0|sipaddr = 10.192.1.52|identd = -|remoteuser = -|httpreq = "GET /flower_store/product.screen?product_id=FL-DLH-02 HTTP/1.1"|httpstatus = 200|contentlength = 10582|referrer = "http://mystore.splunk.com/flower_store/category.screen?category_id=CANDY&JSESSIONID=SD7SL1FF9ADFF2"|useragent = "Mozilla/5.0 (X11; U; Linux i686; en-US; rv:1.8.0.10) Gecko/20070223 CentOS/1.5.0.10-0.1.el4.centos Firefox/1.5.0.10"
eventno = None|eventtype = APACHE_COMBINED|origin = None|timestamp = 1284105035|timestampusec = 0|sipaddr = 10.32.1.31|identd = -|remoteuser = -|httpreq = "GET /flower_store/category.screen?category_id=FLOWERS HTTP/1.1"|httpstatus = 200|contentlength = 10577|referrer = "http://mystore.splunk.com/flower_store/main.screen&JSESSIONID=SD7SL1FF9ADFF2"|useragent = "Mozilla/5.0 (X11; U; Linux i686; en-US; rv:1.8.0.10) Gecko/20070223 CentOS/1.5.0.10-0.1.el4.centos Firefox/1.5.0.10"
eventno = None|eventtype = APACHE_COMBINED|origin = None|timestamp = 1284105079|timestampusec = 0|sipaddr = 192.0.1.50|identd = -|remoteuser = -|httpreq = "GET /flower_store/signoff.do HTTP/1.1"|httpstatus = 200|contentlength = 9662|referrer = "http://mystore.splunk.com/flower_store/order.do&JSESSIONID=SD7SL1FF9ADFF2"|useragent = "Mozilla/5.0 (X11; U; Linux i686; en-US; rv:1.8.0.10) Gecko/20070223 CentOS/1.5.0.10-0.1.el4.centos Firefox/1.5.0.10"
eventno = None|eventtype = APACHE_COMBINED|origin = None|timestamp = 1284105114|timestampusec = 0|sipaddr = 10.192.1.55|identd = -|remoteuser = -|httpreq = "GET /flower_store/signoff.do HTTP/1.1"|httpstatus = 200|contentlength = 9662|referrer = "http://mystore.splunk.com/flower_store/order.do&JSESSIONID=SD7SL1FF9ADFF2"|useragent = "Mozilla/5.0 (X11; U; Linux i686; en-US; rv:1.8.0.10) Gecko/20070223 CentOS/1.5.0.10-0.1.el4.centos Firefox/1.5.0.10"
eventno = None|eventtype = APACHE_COMBINED|origin = None|timestamp = 1284105120|timestampusec = 0|sipaddr = 10.192.1.55|identd = -|remoteuser = -|httpreq = "POST /flower_store/order.do HTTP/1.1"|httpstatus = 200|contentlength = 14392|referrer = "http://mystore.splunk.com/flower_store/enter_order_information.screen&JSESSIONID=SD7SL1FF9ADFF2"|useragent = "Mozilla/5.0 (X11; U; Linux i686; en-US; rv:1.8.0.10) Gecko/20070223 CentOS/1.5.0.10-0.1.el4.centos Firefox/1.5.0.10"
eventno = None|eventtype = APACHE_COMBINED|origin = None|timestamp = 1284105143|timestampusec = 0|sipaddr = 10.2.91.52|identd = -|remoteuser = -|httpreq = "POST /flower_store/order.do HTTP/1.1"|httpstatus = 200|contentlength = 14428|referrer = "http://mystore.splunk.com/flower_store/enter_order_information.screen&JSESSIONID=SD7SL1FF9ADFF2"|useragent = "Mozilla/5.0 (X11; U; Linux i686; en-US; rv:1.8.0.10) Gecko/20070223 CentOS/1.5.0.10-0.1.el4.centos Firefox/1.5.0.10"
eventno = None|eventtype = APACHE_COMBINED|origin = None|timestamp = 1284105180|timestampusec = 0|sipaddr = 192.1.2.40|identd = -|remoteuser = -|httpreq = "GET /flower_store/enter_order_information.screen HTTP/1.1"|httpstatus = 200|contentlength = 16712|referrer = "http://mystore.splunk.com/flower_store/cart.do?action=purchase&itemId=EST-17&JSESSIONID=SD7SL1FF9ADFF2"|useragent = "Mozilla/5.0 (X11; U; Linux i686; en-US; rv:1.8.0.10) Gecko/20070223 CentOS/1.5.0.10-0.1.el4.centos Firefox/1.5.0.10"
eventno = None|eventtype = APACHE_COMBINED|origin = None|timestamp = 1284105288|timestampusec = 0|sipaddr = 10.32.1.55|identd = -|remoteuser = -|httpreq = "GET /flower_store/category.screen?category_id=GIFTS HTTP/1.1"|httpstatus = 200|contentlength = 10591|referrer = "http://mystore.splunk.com/flower_store/main\\.screen&JSESSIONID=SD7SL1FF9ADFF2"|useragent = "Mozilla/5.0 (X11; U; Linux i686; en-US; rv:1.8.0.10) Gecko/20070223 CentOS/1.5.0.10-0.1.el4.centos Firefox/1.5.0.10"
eventno = None|eventtype = APACHE_COMBINED|origin = None|timestamp = 1284105341|timestampusec = 0|sipaddr = 10.32.1.47|identd = -|remoteuser = -|httpreq = "GET /flower_store/cart.do?action=purchase&itemId=EST-20 HTTP/1.1"|httpstatus = 200|contentlength = 21863|referrer = "http://mystore.splunk.com/flower_store/product.screen?product_id=RP-LI-02&JSESSIONID=SD7SL1FF9ADFF2"|useragent = "Mozilla/5.0 (X11; U; Linux i686; en-US; rv:1.8.0.10) Gecko/20070223 CentOS/1.5.0.10-0.1.el4.centos Firefox/1.5.0.10"
eventno = None|eventtype = APACHE_COMBINED|origin = None|timestamp = 1284105390|timestampusec = 0|sipaddr = 178.19.3.46|identd = -|remoteuser = -|httpreq = "GET /flower_store/cart.do?action=update&itemQuantity_EST-19=4&itemQuantity_EST-18=4 HTTP/1.1"|httpstatus = 200|contentlength = 12600|referrer = "http://mystore.splunk.com/flower_store/cart.do?action=purchase&itemId=EST-7&JSESSIONID=SD7SL1FF9ADFF2"|useragent = "Mozilla/5.0 (X11; U; Linux i686; en-US; rv:1.8.0.10) Gecko/20070223 CentOS/1.5.0.10-0.1.el4.centos Firefox/1.5.0.10"
eventno = None|eventtype = APACHE_COMBINED|origin = None|timestamp = 1284105530|timestampusec = 0|sipaddr = 192.168.11.36|identd = -|remoteuser = -|httpreq = "GET /flower_store/cart.do?action=purchase&itemId=EST-11 HTTP/1.1"|httpstatus = 200|contentlength = 21227|referrer = "http://mystore.splunk.com/flower_store/product.screen?product_id=RP-LI-02&JSESSIONID=SD7SL1FF9ADFF2"|useragent = "Mozilla/5.0 (X11; U; Linux i686; en-US; rv:1.8.0.10) Gecko/20070223 CentOS/1.5.0.10-0.1.el4.centos Firefox/1.5.0.10"
eventno = None|eventtype = APACHE_COMBINED|origin = None|timestamp = 1284105596|timestampusec = 0|sipaddr = 233.77.49.41|identd = -|remoteuser = -|httpreq = "GET /flower_store/cart.do?action=purchase&itemId=EST-15 HTTP/1.1"|httpstatus = 200|contentlength = 11769|referrer = "http://mystore.splunk.com/flower_store/product.screen?product_id=K9-BD-01&JSESSIONID=SD7SL1FF9ADFF2"|useragent = "Mozilla/5.0 (X11; U; Linux i686; en-US; rv:1.8.0.10) Gecko/20070223 CentOS/1.5.0.10-0.1.el4.centos Firefox/1.5.0.10"
eventno = None|eventtype = APACHE_COMBINED|origin = None|timestamp = 1284105634|timestampusec = 0|sipaddr = 192.1.2.42|identd = -|remoteuser = -|httpreq = "GET /flower_store/product.screen?product_id=FI-SW-01 HTTP/1.1"|httpstatus = 200|contentlength = 10582|referrer = "http://mystore.splunk.com/flower_store/category.screen?category_id=CANDY&JSESSIONID=SD7SL1FF9ADFF2"|useragent = "Mozilla/5.0 (X11; U; Linux i686; en-US; rv:1.8.0.10) Gecko/20070223 CentOS/1.5.0.10-0.1.el4.centos Firefox/1.5.0.10"
eventno = None|eventtype = APACHE_COMBINED|origin = None|timestamp = 1284105646|timestampusec = 0|sipaddr = 192.168.11.50|identd = -|remoteuser = -|httpreq = "GET /flower_store/category.screen?category_id=FLOWERS HTTP/1.1"|httpstatus = 200|contentlength = 10577|referrer = "http://mystore.splunk.com/flower_store/main.screen&JSESSIONID=SD7SL1FF9ADFF2"|useragent = "Mozilla/5.0 (X11; U; Linux i686; en-US; rv:1.8.0.10) Gecko/20070223 CentOS/1.5.0.10-0.1.el4.centos Firefox/1.5.0.10"
eventno = None|eventtype = APACHE_COMBINED|origin = None|timestamp = 1284105900|timestampusec = 0|sipaddr = 177.23.21.31|identd = -|remoteuser = -|httpreq = "POST /flower_store/j_signon_check HTTP/1.1"|httpstatus = 302|contentlength = 309|referrer = "http://mystore.splunk.com/flower_store/enter_order_information.screen&JSESSIONID=SD7SL1FF9ADFF2"|useragent = "Mozilla/5.0 (X11; U; Linux i686; en-US; rv:1.8.0.10) Gecko/20070223 CentOS/1.5.0.10-0.1.el4.centos Firefox/1.5.0.10"
eventno = None|eventtype = APACHE_COMBINED|origin = None|timestamp = 1284105993|timestampusec = 0|sipaddr = 10.2.91.47|identd = -|remoteuser = -|httpreq = "GET /flower_store/cart.do?action=update&itemQuantity_EST-19=4&itemQuantity_EST-18=4 HTTP/1.1"|httpstatus = 200|contentlength = 12600|referrer = "http://mystore.splunk.com/flower_store/cart.do?action=purchase&itemId=EST-1&JSESSIONID=SD7SL1FF9ADFF2"|useragent = "Mozilla/5.0 (X11; U; Linux i686; en-US; rv:1.8.0.10) Gecko/20070223 CentOS/1.5.0.10-0.1.el4.centos Firefox/1.5.0.10"
eventno = None|eventtype = APACHE_COMBINED|origin = None|timestamp = 1284106020|timestampusec = 0|sipaddr = 233.77.49.52|identd = -|remoteuser = -|httpreq = "GET /flower_store/product.screen?product_id=FI-FW-02 HTTP/1.1"|httpstatus = 200|contentlength = 10909|referrer = "http://mystore.splunk.com/flower_store/category.screen?category_id=CANDY&JSESSIONID=SD7SL1FF9ADFF2"|useragent = "Mozilla/5.0 (X11; U; Linux i686; en-US; rv:1.8.0.10) Gecko/20070223 CentOS/1.5.0.10-0.1.el4.centos Firefox/1.5.0.10"
eventno = None|eventtype = APACHE_COMBINED|origin = None|timestamp = 1284106033|timestampusec = 0|sipaddr = 189.222.1.54|identd = -|remoteuser = -|httpreq = "GET /flower_store/cart.do?action=purchase&itemId=EST-16 HTTP/1.1"|httpstatus = 200|contentlength = 12399|referrer = "http://mystore.splunk.com/flower_store/product.screen?product_id=FL-DSH-01&JSESSIONID=SD7SL1FF9ADFF2"|useragent = "Mozilla/5.0 (X11; U; Linux i686; en-US; rv:1.8.0.10) Gecko/20070223 CentOS/1.5.0.10-0.1.el4.centos Firefox/1.5.0.10"
eventno = None|eventtype = APACHE_COMBINED|origin = None|timestamp = 1284106065|timestampusec = 0|sipaddr = 192.168.11.55|identd = -|remoteuser = -|httpreq = "GET /flower_store/product.screen?product_id=K9-CW-01 HTTP/1.1"|httpstatus = 200|contentlength = 10560|referrer = "http://mystore.splunk.com/flower_store/category.screen?category_id=FLOWERS&JSESSIONID=SD7SL1FF9ADFF2"|useragent = "Mozilla/5.0 (X11; U; Linux i686; en-US; rv:1.8.0.10) Gecko/20070223 CentOS/1.5.0.10-0.1.el4.centos Firefox/1.5.0.10"
eventno = None|eventtype = APACHE_COMBINED|origin = None|timestamp = 1284106225|timestampusec = 0|sipaddr = 10.192.1.50|identd = -|remoteuser = -|httpreq = "GET /flower_store/signoff.do HTTP/1.1"|httpstatus = 200|contentlength = 9662|referrer = "http://mystore.splunk.com/flower_store/order.do&JSESSIONID=SD7SL1FF9ADFF2"|useragent = "Mozilla/5.0 (X11; U; Linux i686; en-US; rv:1.8.0.10) Gecko/20070223 CentOS/1.5.0.10-0.1.el4.centos Firefox/1.5.0.10"
eventno = None|eventtype = APACHE_COMBINED|origin = None|timestamp = 1284106260|timestampusec = 0|sipaddr = 10.2.91.45|identd = -|remoteuser = -|httpreq = "POST /flower_store/order.do HTTP/1.1"|httpstatus = 200|contentlength = 14392|referrer = "http://mystore.splunk.com/flower_store/enter_order_information.screen&JSESSIONID=SD7SL1FF9ADFF2"|useragent = "Mozilla/5.0 (X11; U; Linux i686; en-US; rv:1.8.0.10) Gecko/20070223 CentOS/1.5.0.10-0.1.el4.centos Firefox/1.5.0.10"
eventno = None|eventtype = APACHE_COMBINED|origin = None|timestamp = 1284106310|timestampusec = 0|sipaddr = 192.168.11.48|identd = -|remoteuser = -|httpreq = "GET /flower_store/product.screen?product_id=K9-CW-01 HTTP/1.1"|httpstatus = 200|contentlength = 10897|referrer = "http://mystore.splunk.com/flower_store/category.screen?category_id=PLANTS&JSESSIONID=SD7SL1FF9ADFF2"|useragent = "Mozilla/5.0 (X11; U; Linux i686; en-US; rv:1.8.0.10) Gecko/20070223 CentOS/1.5.0.10-0.1.el4.centos Firefox/1.5.0.10"
eventno = None|eventtype = APACHE_COMBINED|origin = None|timestamp = 1284106320|timestampusec = 0|sipaddr = 192.168.11.38|identd = -|remoteuser = -|httpreq = "GET /flower_store/enter_order_information.screen HTTP/1.1"|httpstatus = 200|contentlength = 16702|referrer = "http://mystore.splunk.com/flower_store/enter_order_information.screen&JSESSIONID=SD7SL1FF9ADFF2"|useragent = "Mozilla/5.0 (X11; U; Linux i686; en-US; rv:1.8.0.10) Gecko/20070223 CentOS/1.5.0.10-0.1.el4.centos Firefox/1.5.0.10"
eventno = None|eventtype = APACHE_COMBINED|origin = None|timestamp = 1284106372|timestampusec = 0|sipaddr = 192.0.1.41|identd = -|remoteuser = -|httpreq = "GET /flower_store/images/cat3.gif HTTP/1.1"|httpstatus = 200|contentlength = 5024|referrer = "http://mystore.splunk.com/flower_store/item.screen?item_id=EST-26&JSESSIONID=SD7SL1FF9ADFF2"|useragent = "Mozilla/5.0 (X11; U; Linux i686; en-US; rv:1.8.0.10) Gecko/20070223 CentOS/1.5.0.10-0.1.el4.centos Firefox/1.5.0.10"
eventno = None|eventtype = APACHE_COMBINED|origin = None|timestamp = 1284106380|timestampusec = 0|sipaddr = 10.32.1.45|identd = -|remoteuser = -|httpreq = "GET /flower_store/item.screen?item_id=EST-17 HTTP/1.1"|httpstatus = 200|contentlength = 10151|referrer = "http://mystore.splunk.com/flower_store/product.screen?product_id=FL-DLH-02&JSESSIONID=SD7SL1FF9ADFF2"|useragent = "Mozilla/5.0 (X11; U; Linux i686; en-US; rv:1.8.0.10) Gecko/20070223 CentOS/1.5.0.10-0.1.el4.centos Firefox/1.5.0.10"
eventno = None|eventtype = APACHE_COMBINED|origin = None|timestamp = 1284106429|timestampusec = 0|sipaddr = 192.1.2.31|identd = -|remoteuser = -|httpreq = "GET /flower_store/product.screen?product_id=AV-CB-01 HTTP/1.1"|httpstatus = 200|contentlength = 10929|referrer = "http://mystore.splunk.com/flower_store/category.screen?category_id=CANDY&JSESSIONID=SD7SL1FF9ADFF2"|useragent = "Mozilla/5.0 (X11; U; Linux i686; en-US; rv:1.8.0.10) Gecko/20070223 CentOS/1.5.0.10-0.1.el4.centos Firefox/1.5.0.10"
eventno = None|eventtype = APACHE_COMBINED|origin = None|timestamp = 1284106500|timestampusec = 0|sipaddr = 177.23.21.38|identd = -|remoteuser = -|httpreq = "GET /flower_store/product.screen?product_id=FL-DSH-01 HTTP/1.1"|httpstatus = 200|contentlength = 10893|referrer = "http://mystore.splunk.com/flower_store/category.screen?category_id=BALLOONS&JSESSIONID=SD7SL1FF9ADFF2"|useragent = "Mozilla/5.0 (X11; U; Linux i686; en-US; rv:1.8.0.10) Gecko/20070223 CentOS/1.5.0.10-0.1.el4.centos Firefox/1.5.0.10"
eventno = None|eventtype = APACHE_COMBINED|origin = None|timestamp = 1284106560|timestampusec = 0|sipaddr = 177.23.21.34|identd = -|remoteuser = -|httpreq = "POST /flower_store/order.do HTTP/1.1"|httpstatus = 200|contentlength = 14498|referrer = "http://mystore.splunk.com/flower_store/enter_order_information.screen&JSESSIONID=SD7SL1FF9ADFF2"|useragent = "Mozilla/5.0 (X11; U; Linux i686; en-US; rv:1.8.0.10) Gecko/20070223 CentOS/1.5.0.10-0.1.el4.centos Firefox/1.5.0.10"
eventno = None|eventtype = APACHE_COMBINED|origin = None|timestamp = 1284106586|timestampusec = 0|sipaddr = 10.32.1.35|identd = -|remoteuser = -|httpreq = "GET /flower_store/product.screen?product_id=FI-FW-02 HTTP/1.1"|httpstatus = 200|contentlength = 10560|referrer = "http://mystore.splunk.com/flower_store/category.screen?category_id=FLOWERS&JSESSIONID=SD7SL1FF9ADFF2"|useragent = "Mozilla/5.0 (X11; U; Linux i686; en-US; rv:1.8.0.10) Gecko/20070223 CentOS/1.5.0.10-0.1.el4.centos Firefox/1.5.0.10"
eventno = None|eventtype = APACHE_COMBINED|origin = None|timestamp = 1284106657|timestampusec = 0|sipaddr = 10.32.1.42|identd = -|remoteuser = -|httpreq = "GET /flower_store/enter_order_information.screen HTTP/1.1"|httpstatus = 200|contentlength = 12919|referrer = "http://mystore.splunk.com/flower_store/cart.do?action=purchase&itemId=EST-26&JSESSIONID=SD7SL1FF9ADFF2"|useragent = "Mozilla/5.0 (X11; U; Linux i686; en-US; rv:1.8.0.10) Gecko/20070223 CentOS/1.5.0.10-0.1.el4.centos Firefox/1.5.0.10"
eventno = None|eventtype = APACHE_COMBINED|origin = None|timestamp = 1284106680|timestampusec = 0|sipaddr = 233.77.49.52|identd = -|remoteuser = -|httpreq = "GET /flower_store/signoff.do HTTP/1.1"|httpstatus = 200|contentlength = 9662|referrer = "http://mystore.splunk.com/flower_store/order.do&JSESSIONID=SD7SL1FF9ADFF2"|useragent = "Mozilla/5.0 (X11; U; Linux i686; en-US; rv:1.8.0.10) Gecko/20070223 CentOS/1.5.0.10-0.1.el4.centos Firefox/1.5.0.10"
eventno = None|eventtype = APACHE_COMBINED|origin = None|timestamp = 1284106726|timestampusec = 0|sipaddr = 233.77.49.42|identd = -|remoteuser = -|httpreq = "GET /flower_store/product.screen?product_id=FI-FW-02 HTTP/1.1"|httpstatus = 200|contentlength = 10893|referrer = "http://mystore.splunk.com/flower_store/category.screen?category_id=GIFTS&JSESSIONID=SD7SL1FF9ADFF2"|useragent = "Mozilla/5.0 (X11; U; Linux i686; en-US; rv:1.8.0.10) Gecko/20070223 CentOS/1.5.0.10-0.1.el4.centos Firefox/1.5.0.10"
eventno = None|eventtype = APACHE_COMBINED|origin = None|timestamp = 1284106800|timestampusec = 0|sipaddr = 233.77.49.55|identd = -|remoteuser = -|httpreq = "GET /flower_store/item.screen?item_id=EST-20 HTTP/1.1"|httpstatus = 200|contentlength = 10151|referrer = "http://mystore.splunk.com/flower_store/product.screen?product_id=RP-LI-02&JSESSIONID=SD7SL1FF9ADFF2"|useragent = "Mozilla/5.0 (X11; U; Linux i686; en-US; rv:1.8.0.10) Gecko/20070223 CentOS/1.5.0.10-0.1.el4.centos Firefox/1.5.0.10"
eventno = None|eventtype = APACHE_COMBINED|origin = None|timestamp = 1284106821|timestampusec = 0|sipaddr = 192.1.2.36|identd = -|remoteuser = -|httpreq = "GET /flower_store/product.screen?product_id=FL-DLH-02 HTTP/1.1"|httpstatus = 200|contentlength = 10582|referrer = "http://mystore.splunk.com/flower_store/category.screen?category_id=CANDY&JSESSIONID=SD7SL1FF9ADFF2"|useragent = "Mozilla/5.0 (X11; U; Linux i686; en-US; rv:1.8.0.10) Gecko/20070223 CentOS/1.5.0.10-0.1.el4.centos Firefox/1.5.0.10"
eventno = None|eventtype = APACHE_COMBINED|origin = None|timestamp = 1284107006|timestampusec = 0|sipaddr = 10.192.1.38|identd = -|remoteuser = -|httpreq = "GET /flower_store/product.screen?product_id=AV-CB-01 HTTP/1.1"|httpstatus = 200|contentlength = 10901|referrer = "http://mystore.splunk.com/flower_store/category.screen?category_id=FLOWERS&JSESSIONID=SD7SL1FF9ADFF2"|useragent = "Mozilla/5.0 (X11; U; Linux i686; en-US; rv:1.8.0.10) Gecko/20070223 CentOS/1.5.0.10-0.1.el4.centos Firefox/1.5.0.10"
eventno = None|eventtype = APACHE_COMBINED|origin = None|timestamp = 1284107034|timestampusec = 0|sipaddr = 189.222.1.52|identd = -|remoteuser = -|httpreq = "GET /flower_store/category.screen?category_id=BALLOONS HTTP/1.1"|httpstatus = 200|contentlength = 10591|referrer = "http://mystore.splunk.com/flower_store/main\\.screen&JSESSIONID=SD7SL1FF9ADFF2"|useragent = "Mozilla/5.0 (X11; U; Linux i686; en-US; rv:1.8.0.10) Gecko/20070223 CentOS/1.5.0.10-0.1.el4.centos Firefox/1.5.0.10"
eventno = None|eventtype = APACHE_COMBINED|origin = None|timestamp = 1284107040|timestampusec = 0|sipaddr = 178.19.3.29|identd = -|remoteuser = -|httpreq = "GET /flower_store/enter_order_information.screen HTTP/1.1"|httpstatus = 200|contentlength = 12919|referrer = "http://mystore.splunk.com/flower_store/cart.do?action=update&itemQuantity_EST-7=2&itemQuantity_EST-27=2&itemQuantity_EST-6=2&itemQuantity_EST-26=2&JSESSIONID=SD7SL1FF9ADFF2"|useragent = "Mozilla/5.0 (X11; U; Linux i686; en-US; rv:1.8.0.10) Gecko/20070223 CentOS/1.5.0.10-0.1.el4.centos Firefox/1.5.0.10"
eventno = None|eventtype = APACHE_COMBINED|origin = None|timestamp = 1284107148|timestampusec = 0|sipaddr = 189.222.1.33|identd = -|remoteuser = -|httpreq = "GET /flower_store/product.screen?product_id=RP-LI-02 HTTP/1.1"|httpstatus = 200|contentlength = 10901|referrer = "http://mystore.splunk.com/flower_store/category.screen?category_id=GIFTS&JSESSIONID=SD7SL1FF9ADFF2"|useragent = "Mozilla/5.0 (X11; U; Linux i686; en-US; rv:1.8.0.10) Gecko/20070223 CentOS/1.5.0.10-0.1.el4.centos Firefox/1.5.0.10"
eventno = None|eventtype = APACHE_COMBINED|origin = None|timestamp = 1284107220|timestampusec = 0|sipaddr = 10.192.1.38|identd = -|remoteuser = -|httpreq = "GET /flower_store/cart.do?action=update&itemQuantity_EST-19=4&itemQuantity_EST-18=4 HTTP/1.1"|httpstatus = 200|contentlength = 12600|referrer = "http://mystore.splunk.com/flower_store/cart.do?action=purchase&itemId=EST-21&JSESSIONID=SD7SL1FF9ADFF2"|useragent = "Mozilla/5.0 (X11; U; Linux i686; en-US; rv:1.8.0.10) Gecko/20070223 CentOS/1.5.0.10-0.1.el4.centos Firefox/1.5.0.10"
eventno = None|eventtype = APACHE_COMBINED|origin = None|timestamp = 1284107280|timestampusec = 0|sipaddr = 192.168.11.51|identd = -|remoteuser = -|httpreq = "GET /flower_store/product.screen?product_id=K9-BD-01 HTTP/1.1"|httpstatus = 200|contentlength = 10938|referrer = "http://mystore.splunk.com/flower_store/category.screen?category_id=CANDY&JSESSIONID=SD7SL1FF9ADFF2"|useragent = "Mozilla/5.0 (X11; U; Linux i686; en-US; rv:1.8.0.10) Gecko/20070223 CentOS/1.5.0.10-0.1.el4.centos Firefox/1.5.0.10"
eventno = None|eventtype = APACHE_COMBINED|origin = None|timestamp = 1284107400|timestampusec = 0|sipaddr = 192.0.1.44|identd = -|remoteuser = -|httpreq = "GET /flower_store/cart.do?action=purchase&itemId=EST-14 HTTP/1.1"|httpstatus = 200|contentlength = 11767|referrer = "http://mystore.splunk.com/flower_store/product.screen?product_id=K9-BD-01&JSESSIONID=SD7SL1FF9ADFF2"|useragent = "Mozilla/5.0 (X11; U; Linux i686; en-US; rv:1.8.0.10) Gecko/20070223 CentOS/1.5.0.10-0.1.el4.centos Firefox/1.5.0.10"
eventno = None|eventtype = APACHE_COMBINED|origin = None|timestamp = 1284107431|timestampusec = 0|sipaddr = 233.77.49.47|identd = -|remoteuser = -|httpreq = "POST /flower_store/order.do HTTP/1.1"|httpstatus = 200|contentlength = 14404|referrer = "http://mystore.splunk.com/flower_store/enter_order_information.screen&JSESSIONID=SD7SL1FF9ADFF2"|useragent = "Mozilla/5.0 (X11; U; Linux i686; en-US; rv:1.8.0.10) Gecko/20070223 CentOS/1.5.0.10-0.1.el4.centos Firefox/1.5.0.10"
eventno = None|eventtype = APACHE_COMBINED|origin = None|timestamp = 1284107610|timestampusec = 0|sipaddr = 177.23.21.37|identd = -|remoteuser = -|httpreq = "GET /flower_store/enter_order_information.screen HTTP/1.1"|httpstatus = 200|contentlength = 16718|referrer = "http://mystore.splunk.com/flower_store/enter_order_information.screen&JSESSIONID=SD7SL1FF9ADFF2"|useragent = "Mozilla/5.0 (X11; U; Linux i686; en-US; rv:1.8.0.10) Gecko/20070223 CentOS/1.5.0.10-0.1.el4.centos Firefox/1.5.0.10"
eventno = None|eventtype = APACHE_COMBINED|origin = None|timestamp = 1284107688|timestampusec = 0|sipaddr = 233.77.49.52|identd = -|remoteuser = -|httpreq = "GET /flower_store/main.screen HTTP/1.1"|httpstatus = 200|contentlength = 10686|referrer = "http://mystore.splunk.com/index.html&JSESSIONID=SD7SL1FF9ADFF2"|useragent = "Mozilla/5.0 (X11; U; Linux i686; en-US; rv:1.8.0.10) Gecko/20070223 CentOS/1.5.0.10-0.1.el4.centos Firefox/1.5.0.10"
eventno = None|eventtype = APACHE_COMBINED|origin = None|timestamp = 1284107700|timestampusec = 0|sipaddr = 10.192.1.41|identd = -|remoteuser = -|httpreq = "GET /flower_store/signoff.do HTTP/1.1"|httpstatus = 200|contentlength = 9662|referrer = "http://mystore.splunk.com/flower_store/order.do&JSESSIONID=SD7SL1FF9ADFF2"|useragent = "Mozilla/5.0 (X11; U; Linux i686; en-US; rv:1.8.0.10) Gecko/20070223 CentOS/1.5.0.10-0.1.el4.centos Firefox/1.5.0.10"
eventno = None|eventtype = APACHE_COMBINED|origin = None|timestamp = 1284107754|timestampusec = 0|sipaddr = 177.23.21.42|identd = -|remoteuser = -|httpreq = "POST /flower_store/order.do HTTP/1.1"|httpstatus = 200|contentlength = 14392|referrer = "http://mystore.splunk.com/flower_store/enter_order_information.screen&JSESSIONID=SD7SL1FF9ADFF2"|useragent = "Mozilla/5.0 (X11; U; Linux i686; en-US; rv:1.8.0.10) Gecko/20070223 CentOS/1.5.0.10-0.1.el4.centos Firefox/1.5.0.10"
eventno = None|eventtype = APACHE_COMBINED|origin = None|timestamp = 1284107820|timestampusec = 0|sipaddr = 192.168.11.49|identd = -|remoteuser = -|httpreq = "GET /flower_store/product.screen?product_id=FI-FW-02 HTTP/1.1"|httpstatus = 200|contentlength = 10919|referrer = "http://mystore.splunk.com/flower_store/category.screen?category_id=FLOWERS&JSESSIONID=SD7SL1FF9ADFF2"|useragent = "Mozilla/5.0 (X11; U; Linux i686; en-US; rv:1.8.0.10) Gecko/20070223 CentOS/1.5.0.10-0.1.el4.centos Firefox/1.5.0.10"
eventno = None|eventtype = APACHE_COMBINED|origin = None|timestamp = 1284107989|timestampusec = 0|sipaddr = 10.32.1.35|identd = -|remoteuser = -|httpreq = "GET /flower_store/product.screen?product_id=AV-CB-01 HTTP/1.1"|httpstatus = 200|contentlength = 10550|referrer = "http://mystore.splunk.com/flower_store/category.screen?category_id=FLOWERS&JSESSIONID=SD7SL1FF9ADFF2"|useragent = "Mozilla/5.0 (X11; U; Linux i686; en-US; rv:1.8.0.10) Gecko/20070223 CentOS/1.5.0.10-0.1.el4.centos Firefox/1.5.0.10"
eventno = None|eventtype = APACHE_COMBINED|origin = None|timestamp = 1284108050|timestampusec = 0|sipaddr = 233.77.49.32|identd = -|remoteuser = -|httpreq = "GET /flower_store/product.screen?product_id=RP-SN-01 HTTP/1.1"|httpstatus = 200|contentlength = 10560|referrer = "http://mystore.splunk.com/flower_store/category.screen?category_id=FLOWERS&JSESSIONID=SD7SL1FF9ADFF2"|useragent = "Mozilla/5.0 (X11; U; Linux i686; en-US; rv:1.8.0.10) Gecko/20070223 CentOS/1.5.0.10-0.1.el4.centos Firefox/1.5.0.10"
eventno = None|eventtype = APACHE_COMBINED|origin = None|timestamp = 1284108180|timestampusec = 0|sipaddr = 177.23.21.43|identd = -|remoteuser = -|httpreq = "GET /flower_store/enter_order_information.screen HTTP/1.1"|httpstatus = 200|contentlength = 12919|referrer = "http://mystore.splunk.com/flower_store/cart.do?action=purchase&itemId=EST-13&JSESSIONID=SD7SL1FF9ADFF2"|useragent = "Mozilla/5.0 (X11; U; Linux i686; en-US; rv:1.8.0.10) Gecko/20070223 CentOS/1.5.0.10-0.1.el4.centos Firefox/1.5.0.10"
eventno = None|eventtype = APACHE_COMBINED|origin = None|timestamp = 1284108260|timestampusec = 0|sipaddr = 192.1.2.44|identd = -|remoteuser = -|httpreq = "GET /flower_store/product.screen?product_id=K9-CW-01 HTTP/1.1"|httpstatus = 200|contentlength = 10919|referrer = "http://mystore.splunk.com/flower_store/category.screen?category_id=GIFTS&JSESSIONID=SD7SL1FF9ADFF2"|useragent = "Mozilla/5.0 (X11; U; Linux i686; en-US; rv:1.8.0.10) Gecko/20070223 CentOS/1.5.0.10-0.1.el4.centos Firefox/1.5.0.10"
eventno = None|eventtype = APACHE_COMBINED|origin = None|timestamp = 1284108320|timestampusec = 0|sipaddr = 233.77.49.34|identd = -|remoteuser = -|httpreq = "GET /flower_store/category.screen?category_id=GIFTS HTTP/1.1"|httpstatus = 200|contentlength = 10684|referrer = "http://mystore.splunk.com/flower_store/main.screen&JSESSIONID=SD7SL1FF9ADFF2"|useragent = "Mozilla/5.0 (X11; U; Linux i686; en-US; rv:1.8.0.10) Gecko/20070223 CentOS/1.5.0.10-0.1.el4.centos Firefox/1.5.0.10"
eventno = None|eventtype = APACHE_COMBINED|origin = None|timestamp = 1284108353|timestampusec = 0|sipaddr = 192.168.11.39|identd = -|remoteuser = -|httpreq = "GET /flower_store/cart.do?action=purchase&itemId=EST-18 HTTP/1.1"|httpstatus = 200|contentlength = 11769|referrer = "http://mystore.splunk.com/flower_store/product.screen?product_id=FI-SW-01&JSESSIONID=SD7SL1FF9ADFF2"|useragent = "Mozilla/5.0 (X11; U; Linux i686; en-US; rv:1.8.0.10) Gecko/20070223 CentOS/1.5.0.10-0.1.el4.centos Firefox/1.5.0.10"
eventno = None|eventtype = APACHE_COMBINED|origin = None|timestamp = 1284108406|timestampusec = 0|sipaddr = 233.77.49.45|identd = -|remoteuser = -|httpreq = "GET /flower_store/product.screen?product_id=FI-SW-01 HTTP/1.1"|httpstatus = 200|contentlength = 10582|referrer = "http://mystore.splunk.com/flower_store/category.screen?category_id=FLOWERS&JSESSIONID=SD7SL1FF9ADFF2"|useragent = "Mozilla/5.0 (X11; U; Linux i686; en-US; rv:1.8.0.10) Gecko/20070223 CentOS/1.5.0.10-0.1.el4.centos Firefox/1.5.0.10"
eventno = None|eventtype = APACHE_COMBINED|origin = None|timestamp = 1284108480|timestampusec = 0|sipaddr = 192.0.1.45|identd = -|remoteuser = -|httpreq = "GET /flower_store/cart.do?action=purchase&itemId=EST-26 HTTP/1.1"|httpstatus = 404|contentlength = 15537|referrer = "http://mystore.splunk.com/pet_store/product.screen?product_id=FI-SW-01&JSESSIONID=SD7SL1FF9ADFF2"|useragent = "Mozilla/5.0 (X11; U; Linux i686; en-US; rv:1.8.0.10) Gecko/20070223 CentOS/1.5.0.10-0.1.el4.centos Firefox/1.5.0.10"
eventno = None|eventtype = APACHE_COMBINED|origin = None|timestamp = 1284108553|timestampusec = 0|sipaddr = 10.2.91.41|identd = -|remoteuser = -|httpreq = "GET /flower_store/signoff.do HTTP/1.1"|httpstatus = 200|contentlength = 9662|referrer = "http://mystore.splunk.com/flower_store/order.do&JSESSIONID=SD7SL1FF9ADFF2"|useragent = "Mozilla/5.0 (X11; U; Linux i686; en-US; rv:1.8.0.10) Gecko/20070223 CentOS/1.5.0.10-0.1.el4.centos Firefox/1.5.0.10"
eventno = None|eventtype = APACHE_COMBINED|origin = None|timestamp = 1284108677|timestampusec = 0|sipaddr = 10.2.91.50|identd = -|remoteuser = -|httpreq = "POST /flower_store/j_signon_check HTTP/1.1"|httpstatus = 302|contentlength = 309|referrer = "http://mystore.splunk.com/flower_store/enter_order_information.screen&JSESSIONID=SD7SL1FF9ADFF2"|useragent = "Mozilla/5.0 (X11; U; Linux i686; en-US; rv:1.8.0.10) Gecko/20070223 CentOS/1.5.0.10-0.1.el4.centos Firefox/1.5.0.10"
eventno = None|eventtype = APACHE_COMBINED|origin = None|timestamp = 1284108753|timestampusec = 0|sipaddr = 233.77.49.51|identd = -|remoteuser = -|httpreq = "GET /flower_store/main.screen HTTP/1.1"|httpstatus = 200|contentlength = 10686|referrer = "-&JSESSIONID=SD7SL1FF9ADFF2"|useragent = "Mozilla/5.0 (X11; U; Linux i686; en-US; rv:1.8.0.10) Gecko/20070223 CentOS/1.5.0.10-0.1.el4.centos Firefox/1.5.0.10"
eventno = None|eventtype = APACHE_COMBINED|origin = None|timestamp = 1284108828|timestampusec = 0|sipaddr = 178.19.3.44|identd = -|remoteuser = -|httpreq = "GET /flower_store/cart.do?action=update&itemQuantity_EST-19=4&itemQuantity_EST-18=4 HTTP/1.1"|httpstatus = 200|contentlength = 12600|referrer = "http://mystore.splunk.com/flower_store/cart.do?action=purchase&itemId=EST-16&JSESSIONID=SD7SL1FF9ADFF2"|useragent = "Mozilla/5.0 (X11; U; Linux i686; en-US; rv:1.8.0.10) Gecko/20070223 CentOS/1.5.0.10-0.1.el4.centos Firefox/1.5.0.10"
eventno = None|eventtype = APACHE_COMBINED|origin = None|timestamp = 1284108873|timestampusec = 0|sipaddr = 233.77.49.46|identd = -|remoteuser = -|httpreq = "GET /flower_store/product.screen?product_id=FI-FW-02 HTTP/1.1"|httpstatus = 200|contentlength = 10560|referrer = "http://mystore.splunk.com/flower_store/category.screen?category_id=GIFTS&JSESSIONID=SD7SL1FF9ADFF2"|useragent = "Mozilla/5.0 (X11; U; Linux i686; en-US; rv:1.8.0.10) Gecko/20070223 CentOS/1.5.0.10-0.1.el4.centos Firefox/1.5.0.10"
eventno = None|eventtype = APACHE_COMBINED|origin = None|timestamp = 1284108900|timestampusec = 0|sipaddr = 192.0.1.54|identd = -|remoteuser = -|httpreq = "GET /flower_store/category.screen?category_id=BALLOONS HTTP/1.1"|httpstatus = 200|contentlength = 10591|referrer = "http://mystore.splunk.com/flower_store/main\\.screen&JSESSIONID=SD7SL1FF9ADFF2"|useragent = "Mozilla/5.0 (X11; U; Linux i686; en-US; rv:1.8.0.10) Gecko/20070223 CentOS/1.5.0.10-0.1.el4.centos Firefox/1.5.0.10"
eventno = None|eventtype = APACHE_COMBINED|origin = None|timestamp = 1284108936|timestampusec = 0|sipaddr = 233.77.49.44|identd = -|remoteuser = -|httpreq = "GET /flower_store/signoff.do HTTP/1.1"|httpstatus = 200|contentlength = 9662|referrer = "http://mystore.splunk.com/flower_store/order.do&JSESSIONID=SD7SL1FF9ADFF2"|useragent = "Mozilla/5.0 (X11; U; Linux i686; en-US; rv:1.8.0.10) Gecko/20070223 CentOS/1.5.0.10-0.1.el4.centos Firefox/1.5.0.10"
eventno = None|eventtype = APACHE_COMBINED|origin = None|timestamp = 1284109080|timestampusec = 0|sipaddr = 187.231.45.36|identd = -|remoteuser = -|httpreq = "GET /flower_store/product.screen?product_id=FI-SW-01 HTTP/1.1"|httpstatus = 200|contentlength = 10901|referrer = "http://mystore.splunk.com/flower_store/category.screen?category_id=FLOWERS&JSESSIONID=SD2SL2FF7ADFF5"|useragent = "Mozilla/5.0 (X11; U; Linux i686; en-US; rv:1.8.0.10) Gecko/20070223 CentOS/1.5.0.10-0.1.el4.centos Firefox/1.5.0.10"
eventno = None|eventtype = APACHE_COMBINED|origin = None|timestamp = 1284109140|timestampusec = 0|sipaddr = 10.32.1.51|identd = -|remoteuser = -|httpreq = "GET /flower_store/product.screen?product_id=RP-LI-02 HTTP/1.1"|httpstatus = 301|contentlength = 10901|referrer = "http://mystore.splunk.com/flower_store/category.screen?category_id=PLANTS&JSESSIONID=SD2SL2FF7ADFF5"|useragent = "Mozilla/5.0 (X11; U; Linux i686; en-US; rv:1.8.0.10) Gecko/20070223 CentOS/1.5.0.10-0.1.el4.centos Firefox/1.5.0.10"
eventno = None|eventtype = APACHE_COMBINED|origin = None|timestamp = 1284109248|timestampusec = 0|sipaddr = 178.19.3.38|identd = -|remoteuser = -|httpreq = "POST /flower_store/j_signon_check HTTP/1.1"|httpstatus = 302|contentlength = 309|referrer = "http://mystore.splunk.com/flower_store/enter_order_information.screen&JSESSIONID=SD2SL2FF7ADFF5"|useragent = "Mozilla/5.0 (X11; U; Linux i686; en-US; rv:1.8.0.10) Gecko/20070223 CentOS/1.5.0.10-0.1.el4.centos Firefox/1.5.0.10"
eventno = None|eventtype = APACHE_COMBINED|origin = None|timestamp = 1284109315|timestampusec = 0|sipaddr = 192.0.1.33|identd = -|remoteuser = -|httpreq = "GET /flower_store/cart.do?action=purchase&itemId=EST-17 HTTP/1.1"|httpstatus = 200|contentlength = 15537|referrer = "http://mystore.splunk.com/flower_store/product.screen?product_id=K9-BD-01&JSESSIONID=SD2SL2FF7ADFF5"|useragent = "Mozilla/5.0 (X11; U; Linux i686; en-US; rv:1.8.0.10) Gecko/20070223 CentOS/1.5.0.10-0.1.el4.centos Firefox/1.5.0.10"
eventno = None|eventtype = APACHE_COMBINED|origin = None|timestamp = 1284109320|timestampusec = 0|sipaddr = 10.32.1.33|identd = -|remoteuser = -|httpreq = "GET /flower_store/product.screen?product_id=FI-FW-02 HTTP/1.1"|httpstatus = 200|contentlength = 10901|referrer = "http://mystore.splunk.com/flower_store/category.screen?category_id=CANDY&JSESSIONID=SD2SL2FF7ADFF5"|useragent = "Mozilla/5.0 (X11; U; Linux i686; en-US; rv:1.8.0.10) Gecko/20070223 CentOS/1.5.0.10-0.1.el4.centos Firefox/1.5.0.10"
eventno = None|eventtype = APACHE_COMBINED|origin = None|timestamp = 1284109440|timestampusec = 0|sipaddr = 189.222.1.41|identd = -|remoteuser = -|httpreq = "GET /flower_store/cart.do?action=purchase&itemId=EST-26 HTTP/1.1"|httpstatus = 200|contentlength = 14910|referrer = "http://mystore.splunk.com/flower_store/product.screen?product_id=FI-SW-01&JSESSIONID=SD2SL2FF7ADFF5"|useragent = "Mozilla/5.0 (X11; U; Linux i686; en-US; rv:1.8.0.10) Gecko/20070223 CentOS/1.5.0.10-0.1.el4.centos Firefox/1.5.0.10"
eventno = None|eventtype = APACHE_COMBINED|origin = None|timestamp = 1284109471|timestampusec = 0|sipaddr = 192.0.1.35|identd = -|remoteuser = -|httpreq = "GET /flower_store/category.screen?category_id=FLOWERS HTTP/1.1"|httpstatus = 200|contentlength = 10577|referrer = "http://mystore.splunk.com/flower_store/cart.do?action=purchase&itemId=EST-12&JSESSIONID=SD2SL2FF7ADFF5"|useragent = "Mozilla/5.0 (X11; U; Linux i686; en-US; rv:1.8.0.10) Gecko/20070223 CentOS/1.5.0.10-0.1.el4.centos Firefox/1.5.0.10"
eventno = None|eventtype = APACHE_COMBINED|origin = None|timestamp = 1284109500|timestampusec = 0|sipaddr = 233.77.49.55|identd = -|remoteuser = -|httpreq = "GET /flower_store/cart.do?action=purchase&itemId=EST-27 HTTP/1.1"|httpstatus = 200|contentlength = 11769|referrer = "http://mystore.splunk.com/flower_store/product.screen?product_id=RP-SN-01&JSESSIONID=SD2SL2FF7ADFF5"|useragent = "Mozilla/5.0 (X11; U; Linux i686; en-US; rv:1.8.0.10) Gecko/20070223 CentOS/1.5.0.10-0.1.el4.centos Firefox/1.5.0.10"
eventno = None|eventtype = APACHE_COMBINED|origin = None|timestamp = 1284109596|timestampusec = 0|sipaddr = 187.231.45.39|identd = -|remoteuser = -|httpreq = "GET /flower_store/product.screen?product_id=RP-SN-01 HTTP/1.1"|httpstatus = 200|contentlength = 10582|referrer = "http://mystore.splunk.com/flower_store/category.screen?category_id=FLOWERS&JSESSIONID=SD2SL2FF7ADFF5"|useragent = "Mozilla/5.0 (X11; U; Linux i686; en-US; rv:1.8.0.10) Gecko/20070223 CentOS/1.5.0.10-0.1.el4.centos Firefox/1.5.0.10"
eventno = None|eventtype = APACHE_COMBINED|origin = None|timestamp = 1284109609|timestampusec = 0|sipaddr = 189.222.1.37|identd = -|remoteuser = -|httpreq = "GET /flower_store/category.screen?category_id=FLOWERS HTTP/1.1"|httpstatus = 200|contentlength = 10577|referrer = "http://mystore.splunk.com/flower_store/main.screen&JSESSIONID=SD2SL2FF7ADFF5"|useragent = "Mozilla/5.0 (X11; U; Linux i686; en-US; rv:1.8.0.10) Gecko/20070223 CentOS/1.5.0.10-0.1.el4.centos Firefox/1.5.0.10"
eventno = None|eventtype = APACHE_COMBINED|origin = None|timestamp = 1284109733|timestampusec = 0|sipaddr = 177.23.21.49|identd = -|remoteuser = -|httpreq = "POST /flower_store/order.do HTTP/1.1"|httpstatus = 200|contentlength = 14392|referrer = "http://mystore.splunk.com/flower_store/enter_order_information.screen&JSESSIONID=SD2SL2FF7ADFF5"|useragent = "Mozilla/5.0 (X11; U; Linux i686; en-US; rv:1.8.0.10) Gecko/20070223 CentOS/1.5.0.10-0.1.el4.centos Firefox/1.5.0.10"
eventno = None|eventtype = APACHE_COMBINED|origin = None|timestamp = 1284109757|timestampusec = 0|sipaddr = 187.231.45.35|identd = -|remoteuser = -|httpreq = "GET /flower_store/enter_order_information.screen HTTP/1.1"|httpstatus = 200|contentlength = 16702|referrer = "http://mystore.splunk.com/flower_store/enter_order_information.screen&JSESSIONID=SD2SL2FF7ADFF5"|useragent = "Mozilla/5.0 (X11; U; Linux i686; en-US; rv:1.8.0.10) Gecko/20070223 CentOS/1.5.0.10-0.1.el4.centos Firefox/1.5.0.10"
eventno = None|eventtype = APACHE_COMBINED|origin = None|timestamp = 1284109775|timestampusec = 0|sipaddr = 192.0.1.47|identd = -|remoteuser = -|httpreq = "POST /flower_store/j_signon_check HTTP/1.1"|httpstatus = 302|contentlength = 309|referrer = "http://mystore.splunk.com/flower_store/enter_order_information.screen&JSESSIONID=SD2SL2FF7ADFF5"|useragent = "Mozilla/5.0 (X11; U; Linux i686; en-US; rv:1.8.0.10) Gecko/20070223 CentOS/1.5.0.10-0.1.el4.centos Firefox/1.5.0.10"
eventno = None|eventtype = APACHE_COMBINED|origin = None|timestamp = 1284109797|timestampusec = 0|sipaddr = 178.19.3.38|identd = -|remoteuser = -|httpreq = "GET /flower_store/product.screen?product_id=AV-CB-01 HTTP/1.1"|httpstatus = 200|contentlength = 10919|referrer = "http://mystore.splunk.com/flower_store/category.screen?category_id=PLANTS&JSESSIONID=SD2SL2FF7ADFF5"|useragent = "Mozilla/5.0 (X11; U; Linux i686; en-US; rv:1.8.0.10) Gecko/20070223 CentOS/1.5.0.10-0.1.el4.centos Firefox/1.5.0.10"
eventno = None|eventtype = APACHE_COMBINED|origin = None|timestamp = 1284109920|timestampusec = 0|sipaddr = 10.2.91.37|identd = -|remoteuser = -|httpreq = "GET /flower_store/cart.do?action=purchase&itemId=EST-17 HTTP/1.1"|httpstatus = 200|contentlength = 13016|referrer = "http://mystore.splunk.com/flower_store/product.screen?product_id=FI-FW-02&JSESSIONID=SD2SL2FF7ADFF5"|useragent = "Mozilla/5.0 (X11; U; Linux i686; en-US; rv:1.8.0.10) Gecko/20070223 CentOS/1.5.0.10-0.1.el4.centos Firefox/1.5.0.10"
eventno = None|eventtype = APACHE_COMBINED|origin = None|timestamp = 1284110037|timestampusec = 0|sipaddr = 177.23.21.49|identd = -|remoteuser = -|httpreq = "GET /flower_store/product.screen?product_id=AV-CB-01 HTTP/1.1"|httpstatus = 200|contentlength = 10903|referrer = "http://mystore.splunk.com/flower_store/category.screen?category_id=FLOWERS&JSESSIONID=SD2SL2FF7ADFF5"|useragent = "Mozilla/5.0 (X11; U; Linux i686; en-US; rv:1.8.0.10) Gecko/20070223 CentOS/1.5.0.10-0.1.el4.centos Firefox/1.5.0.10"
Wrote 116 events to database
+=============+
| Statistics  |
+=============+
Parsing Failures     : 0
Total Input Records  : 116
Parsed Successfully  : 116
Events Output        : 116
