#############################################
#    Raw Data to Events Normalizer - v0.1a  #
#############################################
Input file: ../saf-data/db//../rawdata/mysqld.log
Output file: /tmp/temp/mysqld.sqlite
Plugin attributes (with default values): 
	eventno = None
	eventtype = None
	origin = None
	timestamp = None
	timestampusec = None
	loglevel = None
	charstring = None
Connecting to output database /tmp/temp/mysqld.sqlite
Parsing records..
eventno = None|eventtype = MYSQL|origin = None|timestamp = 1284238841|timestampusec = 0|loglevel = CRITICAL|charstring = /opt/mysql/bin/mysqld: Disk is full writing '/mysqllog/binlog/localhost-3306-bin.000020' (Errcode: 28). Waiting for someone to free space... Retry in 60 secs
eventno = None|eventtype = MYSQL|origin = None|timestamp = 1284238841|timestampusec = 0|loglevel = CRITICAL|charstring = /opt/mysql/bin/mysqld: Disk is full writing '/mysqllog/binlog/localhost-3306-bin.000020' (Errcode: 28). Waiting for someone to free space... Retry in 60 secs
eventno = None|eventtype = MYSQL|origin = None|timestamp = 1284238843|timestampusec = 0|loglevel = CRITICAL|charstring = Error writing file '/mysqllog/slow_log/localhost_3306_slow_queries.log' (errno: 1)
eventno = None|eventtype = MYSQL|origin = None|timestamp = 1284238843|timestampusec = 0|loglevel = CRITICAL|charstring = Error writing file '/mysqllog/slow_log/localhost_3306_slow_queries.log' (errno: 1)
eventno = None|eventtype = MYSQL|origin = None|timestamp = 1284238844|timestampusec = 0|loglevel = CRITICAL|charstring = Error writing file '/mysqllog/binlog/localhost-3306-bin' (errno: 28)
eventno = None|eventtype = MYSQL|origin = None|timestamp = 1284238844|timestampusec = 0|loglevel = CRITICAL|charstring = Error writing file '/mysqllog/binlog/localhost-3306-bin' (errno: 28)
eventno = None|eventtype = MYSQL|origin = None|timestamp = 1284238846|timestampusec = 0|loglevel = CRITICAL|charstring = Could not use /mysqllog/binlog/localhost-3306-bin for logging (error 28)
eventno = None|eventtype = MYSQL|origin = None|timestamp = 1284238846|timestampusec = 0|loglevel = CRITICAL|charstring = Could not use /mysqllog/binlog/localhost-3306-bin for logging (error 28)
eventno = None|eventtype = MYSQL|origin = None|timestamp = 1284238847|timestampusec = 0|loglevel = CRITICAL|charstring = Aborting
eventno = None|eventtype = MYSQL|origin = None|timestamp = 1284238847|timestampusec = 0|loglevel = CRITICAL|charstring = Aborting
eventno = None|eventtype = MYSQL|origin = None|timestamp = 1284238848|timestampusec = 0|loglevel = CRITICAL|charstring = ./mysqld: Shutdown complete
eventno = None|eventtype = MYSQL|origin = None|timestamp = 1284238848|timestampusec = 0|loglevel = CRITICAL|charstring = ./mysqld: Shutdown complete
eventno = None|eventtype = MYSQL|origin = None|timestamp = 1284262500|timestampusec = 0|loglevel = CRITICAL|charstring = /opt/mysql/bin/mysqld: Disk is full writing '/mysqllog/binlog/localhost-3306-bin.000020' (Errcode: 28). Waiting for someone to free space... Retry in 60 secs
eventno = None|eventtype = MYSQL|origin = None|timestamp = 1284262500|timestampusec = 0|loglevel = CRITICAL|charstring = /opt/mysql/bin/mysqld: Disk is full writing '/mysqllog/binlog/localhost-3306-bin.000020' (Errcode: 28). Waiting for someone to free space... Retry in 60 secs
eventno = None|eventtype = MYSQL|origin = None|timestamp = 1284262501|timestampusec = 0|loglevel = CRITICAL|charstring = Error writing file '/mysqllog/slow_log/localhost_3306_slow_queries.log' (errno: 1)
eventno = None|eventtype = MYSQL|origin = None|timestamp = 1284262501|timestampusec = 0|loglevel = CRITICAL|charstring = Error writing file '/mysqllog/slow_log/localhost_3306_slow_queries.log' (errno: 1)
eventno = None|eventtype = MYSQL|origin = None|timestamp = 1284262502|timestampusec = 0|loglevel = CRITICAL|charstring = Error writing file '/mysqllog/binlog/localhost-3306-bin' (errno: 28)
eventno = None|eventtype = MYSQL|origin = None|timestamp = 1284262502|timestampusec = 0|loglevel = CRITICAL|charstring = Error writing file '/mysqllog/binlog/localhost-3306-bin' (errno: 28)
eventno = None|eventtype = MYSQL|origin = None|timestamp = 1284262503|timestampusec = 0|loglevel = CRITICAL|charstring = Could not use /mysqllog/binlog/localhost-3306-bin for logging (error 28)
eventno = None|eventtype = MYSQL|origin = None|timestamp = 1284262503|timestampusec = 0|loglevel = CRITICAL|charstring = Could not use /mysqllog/binlog/localhost-3306-bin for logging (error 28)
eventno = None|eventtype = MYSQL|origin = None|timestamp = 1284262504|timestampusec = 0|loglevel = CRITICAL|charstring = Aborting
eventno = None|eventtype = MYSQL|origin = None|timestamp = 1284262504|timestampusec = 0|loglevel = CRITICAL|charstring = Aborting
eventno = None|eventtype = MYSQL|origin = None|timestamp = 1284262505|timestampusec = 0|loglevel = CRITICAL|charstring = ./mysqld: Shutdown complete
eventno = None|eventtype = MYSQL|origin = None|timestamp = 1284262505|timestampusec = 0|loglevel = CRITICAL|charstring = ./mysqld: Shutdown complete
eventno = None|eventtype = MYSQL|origin = None|timestamp = 1284307680|timestampusec = 0|loglevel = CRITICAL|charstring = /opt/mysql/bin/mysqld: Disk is full writing '/mysqllog/binlog/localhost-3306-bin.000020' (Errcode: 28). Waiting for someone to free space... Retry in 60 secs
eventno = None|eventtype = MYSQL|origin = None|timestamp = 1284307680|timestampusec = 0|loglevel = CRITICAL|charstring = /opt/mysql/bin/mysqld: Disk is full writing '/mysqllog/binlog/localhost-3306-bin.000020' (Errcode: 28). Waiting for someone to free space... Retry in 60 secs
eventno = None|eventtype = MYSQL|origin = None|timestamp = 1284307681|timestampusec = 0|loglevel = CRITICAL|charstring = Error writing file '/mysqllog/slow_log/localhost_3306_slow_queries.log' (errno: 1)
eventno = None|eventtype = MYSQL|origin = None|timestamp = 1284307681|timestampusec = 0|loglevel = CRITICAL|charstring = Error writing file '/mysqllog/slow_log/localhost_3306_slow_queries.log' (errno: 1)
eventno = None|eventtype = MYSQL|origin = None|timestamp = 1284307682|timestampusec = 0|loglevel = CRITICAL|charstring = Error writing file '/mysqllog/binlog/localhost-3306-bin' (errno: 28)
eventno = None|eventtype = MYSQL|origin = None|timestamp = 1284307682|timestampusec = 0|loglevel = CRITICAL|charstring = Error writing file '/mysqllog/binlog/localhost-3306-bin' (errno: 28)
eventno = None|eventtype = MYSQL|origin = None|timestamp = 1284307684|timestampusec = 0|loglevel = CRITICAL|charstring = Could not use /mysqllog/binlog/localhost-3306-bin for logging (error 28)
eventno = None|eventtype = MYSQL|origin = None|timestamp = 1284307684|timestampusec = 0|loglevel = CRITICAL|charstring = Could not use /mysqllog/binlog/localhost-3306-bin for logging (error 28)
eventno = None|eventtype = MYSQL|origin = None|timestamp = 1284307685|timestampusec = 0|loglevel = CRITICAL|charstring = Aborting
eventno = None|eventtype = MYSQL|origin = None|timestamp = 1284307685|timestampusec = 0|loglevel = CRITICAL|charstring = Aborting
eventno = None|eventtype = MYSQL|origin = None|timestamp = 1284307686|timestampusec = 0|loglevel = CRITICAL|charstring = ./mysqld: Shutdown complete
eventno = None|eventtype = MYSQL|origin = None|timestamp = 1284307686|timestampusec = 0|loglevel = CRITICAL|charstring = ./mysqld: Shutdown complete
eventno = None|eventtype = MYSQL|origin = None|timestamp = 1284338505|timestampusec = 0|loglevel = CRITICAL|charstring = /opt/mysql/bin/mysqld: Disk is full writing '/mysqllog/binlog/localhost-3306-bin.000020' (Errcode: 28). Waiting for someone to free space... Retry in 60 secs
eventno = None|eventtype = MYSQL|origin = None|timestamp = 1284338505|timestampusec = 0|loglevel = CRITICAL|charstring = /opt/mysql/bin/mysqld: Disk is full writing '/mysqllog/binlog/localhost-3306-bin.000020' (Errcode: 28). Waiting for someone to free space... Retry in 60 secs
eventno = None|eventtype = MYSQL|origin = None|timestamp = 1284338507|timestampusec = 0|loglevel = CRITICAL|charstring = Error writing file '/mysqllog/slow_log/localhost_3306_slow_queries.log' (errno: 1)
eventno = None|eventtype = MYSQL|origin = None|timestamp = 1284338507|timestampusec = 0|loglevel = CRITICAL|charstring = Error writing file '/mysqllog/slow_log/localhost_3306_slow_queries.log' (errno: 1)
eventno = None|eventtype = MYSQL|origin = None|timestamp = 1284338508|timestampusec = 0|loglevel = CRITICAL|charstring = Error writing file '/mysqllog/binlog/localhost-3306-bin' (errno: 28)
eventno = None|eventtype = MYSQL|origin = None|timestamp = 1284338508|timestampusec = 0|loglevel = CRITICAL|charstring = Error writing file '/mysqllog/binlog/localhost-3306-bin' (errno: 28)
eventno = None|eventtype = MYSQL|origin = None|timestamp = 1284338510|timestampusec = 0|loglevel = CRITICAL|charstring = Could not use /mysqllog/binlog/localhost-3306-bin for logging (error 28)
eventno = None|eventtype = MYSQL|origin = None|timestamp = 1284338510|timestampusec = 0|loglevel = CRITICAL|charstring = Could not use /mysqllog/binlog/localhost-3306-bin for logging (error 28)
eventno = None|eventtype = MYSQL|origin = None|timestamp = 1284338512|timestampusec = 0|loglevel = CRITICAL|charstring = Aborting
eventno = None|eventtype = MYSQL|origin = None|timestamp = 1284338512|timestampusec = 0|loglevel = CRITICAL|charstring = Aborting
eventno = None|eventtype = MYSQL|origin = None|timestamp = 1284338513|timestampusec = 0|loglevel = CRITICAL|charstring = ./mysqld: Shutdown complete
eventno = None|eventtype = MYSQL|origin = None|timestamp = 1284338513|timestampusec = 0|loglevel = CRITICAL|charstring = ./mysqld: Shutdown complete
eventno = None|eventtype = MYSQL|origin = None|timestamp = 1284345762|timestampusec = 0|loglevel = CRITICAL|charstring = /opt/mysql/bin/mysqld: Disk is full writing '/mysqllog/binlog/localhost-3306-bin.000020' (Errcode: 28). Waiting for someone to free space... Retry in 60 secs
eventno = None|eventtype = MYSQL|origin = None|timestamp = 1284345762|timestampusec = 0|loglevel = CRITICAL|charstring = /opt/mysql/bin/mysqld: Disk is full writing '/mysqllog/binlog/localhost-3306-bin.000020' (Errcode: 28). Waiting for someone to free space... Retry in 60 secs
eventno = None|eventtype = MYSQL|origin = None|timestamp = 1284345764|timestampusec = 0|loglevel = CRITICAL|charstring = Error writing file '/mysqllog/slow_log/localhost_3306_slow_queries.log' (errno: 1)
eventno = None|eventtype = MYSQL|origin = None|timestamp = 1284345764|timestampusec = 0|loglevel = CRITICAL|charstring = Error writing file '/mysqllog/slow_log/localhost_3306_slow_queries.log' (errno: 1)
eventno = None|eventtype = MYSQL|origin = None|timestamp = 1284345765|timestampusec = 0|loglevel = CRITICAL|charstring = Error writing file '/mysqllog/binlog/localhost-3306-bin' (errno: 28)
eventno = None|eventtype = MYSQL|origin = None|timestamp = 1284345765|timestampusec = 0|loglevel = CRITICAL|charstring = Error writing file '/mysqllog/binlog/localhost-3306-bin' (errno: 28)
eventno = None|eventtype = MYSQL|origin = None|timestamp = 1284345767|timestampusec = 0|loglevel = CRITICAL|charstring = Could not use /mysqllog/binlog/localhost-3306-bin for logging (error 28)
eventno = None|eventtype = MYSQL|origin = None|timestamp = 1284345767|timestampusec = 0|loglevel = CRITICAL|charstring = Could not use /mysqllog/binlog/localhost-3306-bin for logging (error 28)
eventno = None|eventtype = MYSQL|origin = None|timestamp = 1284345768|timestampusec = 0|loglevel = CRITICAL|charstring = Aborting
eventno = None|eventtype = MYSQL|origin = None|timestamp = 1284345768|timestampusec = 0|loglevel = CRITICAL|charstring = Aborting
eventno = None|eventtype = MYSQL|origin = None|timestamp = 1284345770|timestampusec = 0|loglevel = CRITICAL|charstring = ./mysqld: Shutdown complete
eventno = None|eventtype = MYSQL|origin = None|timestamp = 1284345770|timestampusec = 0|loglevel = CRITICAL|charstring = ./mysqld: Shutdown complete
eventno = None|eventtype = MYSQL|origin = None|timestamp = 1284345770|timestampusec = 0|loglevel = CRITICAL|charstring = /opt/mysql/bin/mysqld: Disk is full writing '/mysqllog/binlog/localhost-3306-bin.000020' (Errcode: 28). Waiting for someone to free space... Retry in 60 secs
eventno = None|eventtype = MYSQL|origin = None|timestamp = 1284345770|timestampusec = 0|loglevel = CRITICAL|charstring = /opt/mysql/bin/mysqld: Disk is full writing '/mysqllog/binlog/localhost-3306-bin.000020' (Errcode: 28). Waiting for someone to free space... Retry in 60 secs
eventno = None|eventtype = MYSQL|origin = None|timestamp = 1284345772|timestampusec = 0|loglevel = CRITICAL|charstring = Error writing file '/mysqllog/slow_log/localhost_3306_slow_queries.log' (errno: 1)
eventno = None|eventtype = MYSQL|origin = None|timestamp = 1284345772|timestampusec = 0|loglevel = CRITICAL|charstring = Error writing file '/mysqllog/slow_log/localhost_3306_slow_queries.log' (errno: 1)
eventno = None|eventtype = MYSQL|origin = None|timestamp = 1284345774|timestampusec = 0|loglevel = CRITICAL|charstring = Error writing file '/mysqllog/binlog/localhost-3306-bin' (errno: 28)
eventno = None|eventtype = MYSQL|origin = None|timestamp = 1284345774|timestampusec = 0|loglevel = CRITICAL|charstring = Error writing file '/mysqllog/binlog/localhost-3306-bin' (errno: 28)
eventno = None|eventtype = MYSQL|origin = None|timestamp = 1284345775|timestampusec = 0|loglevel = CRITICAL|charstring = Could not use /mysqllog/binlog/localhost-3306-bin for logging (error 28)
eventno = None|eventtype = MYSQL|origin = None|timestamp = 1284345775|timestampusec = 0|loglevel = CRITICAL|charstring = Could not use /mysqllog/binlog/localhost-3306-bin for logging (error 28)
eventno = None|eventtype = MYSQL|origin = None|timestamp = 1284345776|timestampusec = 0|loglevel = CRITICAL|charstring = Aborting
eventno = None|eventtype = MYSQL|origin = None|timestamp = 1284345776|timestampusec = 0|loglevel = CRITICAL|charstring = Aborting
eventno = None|eventtype = MYSQL|origin = None|timestamp = 1284345776|timestampusec = 0|loglevel = CRITICAL|charstring = ./mysqld: Shutdown complete
eventno = None|eventtype = MYSQL|origin = None|timestamp = 1284345776|timestampusec = 0|loglevel = CRITICAL|charstring = ./mysqld: Shutdown complete
eventno = None|eventtype = MYSQL|origin = None|timestamp = 1284345900|timestampusec = 0|loglevel = CRITICAL|charstring = /opt/mysql/bin/mysqld: Disk is full writing '/mysqllog/binlog/localhost-3306-bin.000020' (Errcode: 28). Waiting for someone to free space... Retry in 60 secs
eventno = None|eventtype = MYSQL|origin = None|timestamp = 1284345900|timestampusec = 0|loglevel = CRITICAL|charstring = /opt/mysql/bin/mysqld: Disk is full writing '/mysqllog/binlog/localhost-3306-bin.000020' (Errcode: 28). Waiting for someone to free space... Retry in 60 secs
eventno = None|eventtype = MYSQL|origin = None|timestamp = 1284345901|timestampusec = 0|loglevel = CRITICAL|charstring = Error writing file '/mysqllog/slow_log/localhost_3306_slow_queries.log' (errno: 1)
eventno = None|eventtype = MYSQL|origin = None|timestamp = 1284345901|timestampusec = 0|loglevel = CRITICAL|charstring = Error writing file '/mysqllog/slow_log/localhost_3306_slow_queries.log' (errno: 1)
eventno = None|eventtype = MYSQL|origin = None|timestamp = 1284345902|timestampusec = 0|loglevel = CRITICAL|charstring = Error writing file '/mysqllog/binlog/localhost-3306-bin' (errno: 28)
eventno = None|eventtype = MYSQL|origin = None|timestamp = 1284345902|timestampusec = 0|loglevel = CRITICAL|charstring = Error writing file '/mysqllog/binlog/localhost-3306-bin' (errno: 28)
eventno = None|eventtype = MYSQL|origin = None|timestamp = 1284345904|timestampusec = 0|loglevel = CRITICAL|charstring = Could not use /mysqllog/binlog/localhost-3306-bin for logging (error 28)
eventno = None|eventtype = MYSQL|origin = None|timestamp = 1284345904|timestampusec = 0|loglevel = CRITICAL|charstring = Could not use /mysqllog/binlog/localhost-3306-bin for logging (error 28)
eventno = None|eventtype = MYSQL|origin = None|timestamp = 1284345906|timestampusec = 0|loglevel = CRITICAL|charstring = Aborting
eventno = None|eventtype = MYSQL|origin = None|timestamp = 1284345906|timestampusec = 0|loglevel = CRITICAL|charstring = Aborting
eventno = None|eventtype = MYSQL|origin = None|timestamp = 1284345907|timestampusec = 0|loglevel = CRITICAL|charstring = ./mysqld: Shutdown complete
eventno = None|eventtype = MYSQL|origin = None|timestamp = 1284345907|timestampusec = 0|loglevel = CRITICAL|charstring = ./mysqld: Shutdown complete
eventno = None|eventtype = MYSQL|origin = None|timestamp = 1284510840|timestampusec = 0|loglevel = CRITICAL|charstring = /opt/mysql/bin/mysqld: Disk is full writing '/mysqllog/binlog/localhost-3306-bin.000020' (Errcode: 28). Waiting for someone to free space... Retry in 60 secs
eventno = None|eventtype = MYSQL|origin = None|timestamp = 1284510840|timestampusec = 0|loglevel = CRITICAL|charstring = /opt/mysql/bin/mysqld: Disk is full writing '/mysqllog/binlog/localhost-3306-bin.000020' (Errcode: 28). Waiting for someone to free space... Retry in 60 secs
eventno = None|eventtype = MYSQL|origin = None|timestamp = 1284510842|timestampusec = 0|loglevel = CRITICAL|charstring = Error writing file '/mysqllog/slow_log/localhost_3306_slow_queries.log' (errno: 1)
eventno = None|eventtype = MYSQL|origin = None|timestamp = 1284510842|timestampusec = 0|loglevel = CRITICAL|charstring = Error writing file '/mysqllog/slow_log/localhost_3306_slow_queries.log' (errno: 1)
eventno = None|eventtype = MYSQL|origin = None|timestamp = 1284510843|timestampusec = 0|loglevel = CRITICAL|charstring = Error writing file '/mysqllog/binlog/localhost-3306-bin' (errno: 28)
eventno = None|eventtype = MYSQL|origin = None|timestamp = 1284510843|timestampusec = 0|loglevel = CRITICAL|charstring = Error writing file '/mysqllog/binlog/localhost-3306-bin' (errno: 28)
eventno = None|eventtype = MYSQL|origin = None|timestamp = 1284510844|timestampusec = 0|loglevel = CRITICAL|charstring = Could not use /mysqllog/binlog/localhost-3306-bin for logging (error 28)
eventno = None|eventtype = MYSQL|origin = None|timestamp = 1284510844|timestampusec = 0|loglevel = CRITICAL|charstring = Could not use /mysqllog/binlog/localhost-3306-bin for logging (error 28)
eventno = None|eventtype = MYSQL|origin = None|timestamp = 1284510846|timestampusec = 0|loglevel = CRITICAL|charstring = Aborting
eventno = None|eventtype = MYSQL|origin = None|timestamp = 1284510846|timestampusec = 0|loglevel = CRITICAL|charstring = Aborting
eventno = None|eventtype = MYSQL|origin = None|timestamp = 1284510848|timestampusec = 0|loglevel = CRITICAL|charstring = ./mysqld: Shutdown complete
eventno = None|eventtype = MYSQL|origin = None|timestamp = 1284510848|timestampusec = 0|loglevel = CRITICAL|charstring = ./mysqld: Shutdown complete
eventno = None|eventtype = MYSQL|origin = None|timestamp = 1284525569|timestampusec = 0|loglevel = CRITICAL|charstring = /opt/mysql/bin/mysqld: Disk is full writing '/mysqllog/binlog/localhost-3306-bin.000020' (Errcode: 28). Waiting for someone to free space... Retry in 60 secs
eventno = None|eventtype = MYSQL|origin = None|timestamp = 1284525569|timestampusec = 0|loglevel = CRITICAL|charstring = /opt/mysql/bin/mysqld: Disk is full writing '/mysqllog/binlog/localhost-3306-bin.000020' (Errcode: 28). Waiting for someone to free space... Retry in 60 secs
eventno = None|eventtype = MYSQL|origin = None|timestamp = 1284525571|timestampusec = 0|loglevel = CRITICAL|charstring = Error writing file '/mysqllog/slow_log/localhost_3306_slow_queries.log' (errno: 1)
eventno = None|eventtype = MYSQL|origin = None|timestamp = 1284525571|timestampusec = 0|loglevel = CRITICAL|charstring = Error writing file '/mysqllog/slow_log/localhost_3306_slow_queries.log' (errno: 1)
eventno = None|eventtype = MYSQL|origin = None|timestamp = 1284525572|timestampusec = 0|loglevel = CRITICAL|charstring = Error writing file '/mysqllog/binlog/localhost-3306-bin' (errno: 28)
eventno = None|eventtype = MYSQL|origin = None|timestamp = 1284525572|timestampusec = 0|loglevel = CRITICAL|charstring = Error writing file '/mysqllog/binlog/localhost-3306-bin' (errno: 28)
eventno = None|eventtype = MYSQL|origin = None|timestamp = 1284525574|timestampusec = 0|loglevel = CRITICAL|charstring = Could not use /mysqllog/binlog/localhost-3306-bin for logging (error 28)
eventno = None|eventtype = MYSQL|origin = None|timestamp = 1284525574|timestampusec = 0|loglevel = CRITICAL|charstring = Could not use /mysqllog/binlog/localhost-3306-bin for logging (error 28)
eventno = None|eventtype = MYSQL|origin = None|timestamp = 1284525576|timestampusec = 0|loglevel = CRITICAL|charstring = Aborting
eventno = None|eventtype = MYSQL|origin = None|timestamp = 1284525576|timestampusec = 0|loglevel = CRITICAL|charstring = Aborting
eventno = None|eventtype = MYSQL|origin = None|timestamp = 1284525577|timestampusec = 0|loglevel = CRITICAL|charstring = ./mysqld: Shutdown complete
eventno = None|eventtype = MYSQL|origin = None|timestamp = 1284525577|timestampusec = 0|loglevel = CRITICAL|charstring = ./mysqld: Shutdown complete
eventno = None|eventtype = MYSQL|origin = None|timestamp = 1284547190|timestampusec = 0|loglevel = CRITICAL|charstring = /opt/mysql/bin/mysqld: Disk is full writing '/mysqllog/binlog/localhost-3306-bin.000020' (Errcode: 28). Waiting for someone to free space... Retry in 60 secs
eventno = None|eventtype = MYSQL|origin = None|timestamp = 1284547190|timestampusec = 0|loglevel = CRITICAL|charstring = /opt/mysql/bin/mysqld: Disk is full writing '/mysqllog/binlog/localhost-3306-bin.000020' (Errcode: 28). Waiting for someone to free space... Retry in 60 secs
eventno = None|eventtype = MYSQL|origin = None|timestamp = 1284547192|timestampusec = 0|loglevel = CRITICAL|charstring = Error writing file '/mysqllog/slow_log/localhost_3306_slow_queries.log' (errno: 1)
eventno = None|eventtype = MYSQL|origin = None|timestamp = 1284547192|timestampusec = 0|loglevel = CRITICAL|charstring = Error writing file '/mysqllog/slow_log/localhost_3306_slow_queries.log' (errno: 1)
eventno = None|eventtype = MYSQL|origin = None|timestamp = 1284547193|timestampusec = 0|loglevel = CRITICAL|charstring = Error writing file '/mysqllog/binlog/localhost-3306-bin' (errno: 28)
eventno = None|eventtype = MYSQL|origin = None|timestamp = 1284547193|timestampusec = 0|loglevel = CRITICAL|charstring = Error writing file '/mysqllog/binlog/localhost-3306-bin' (errno: 28)
eventno = None|eventtype = MYSQL|origin = None|timestamp = 1284547194|timestampusec = 0|loglevel = CRITICAL|charstring = Could not use /mysqllog/binlog/localhost-3306-bin for logging (error 28)
eventno = None|eventtype = MYSQL|origin = None|timestamp = 1284547194|timestampusec = 0|loglevel = CRITICAL|charstring = Could not use /mysqllog/binlog/localhost-3306-bin for logging (error 28)
eventno = None|eventtype = MYSQL|origin = None|timestamp = 1284547196|timestampusec = 0|loglevel = CRITICAL|charstring = Aborting
eventno = None|eventtype = MYSQL|origin = None|timestamp = 1284547196|timestampusec = 0|loglevel = CRITICAL|charstring = Aborting
eventno = None|eventtype = MYSQL|origin = None|timestamp = 1284547196|timestampusec = 0|loglevel = CRITICAL|charstring = ./mysqld: Shutdown complete
eventno = None|eventtype = MYSQL|origin = None|timestamp = 1284547196|timestampusec = 0|loglevel = CRITICAL|charstring = ./mysqld: Shutdown complete
eventno = None|eventtype = MYSQL|origin = None|timestamp = 1284610140|timestampusec = 0|loglevel = CRITICAL|charstring = /opt/mysql/bin/mysqld: Disk is full writing '/mysqllog/binlog/localhost-3306-bin.000020' (Errcode: 28). Waiting for someone to free space... Retry in 60 secs
eventno = None|eventtype = MYSQL|origin = None|timestamp = 1284610140|timestampusec = 0|loglevel = CRITICAL|charstring = /opt/mysql/bin/mysqld: Disk is full writing '/mysqllog/binlog/localhost-3306-bin.000020' (Errcode: 28). Waiting for someone to free space... Retry in 60 secs
eventno = None|eventtype = MYSQL|origin = None|timestamp = 1284610141|timestampusec = 0|loglevel = CRITICAL|charstring = Error writing file '/mysqllog/slow_log/localhost_3306_slow_queries.log' (errno: 1)
eventno = None|eventtype = MYSQL|origin = None|timestamp = 1284610141|timestampusec = 0|loglevel = CRITICAL|charstring = Error writing file '/mysqllog/slow_log/localhost_3306_slow_queries.log' (errno: 1)
eventno = None|eventtype = MYSQL|origin = None|timestamp = 1284610142|timestampusec = 0|loglevel = CRITICAL|charstring = Error writing file '/mysqllog/binlog/localhost-3306-bin' (errno: 28)
eventno = None|eventtype = MYSQL|origin = None|timestamp = 1284610142|timestampusec = 0|loglevel = CRITICAL|charstring = Error writing file '/mysqllog/binlog/localhost-3306-bin' (errno: 28)
eventno = None|eventtype = MYSQL|origin = None|timestamp = 1284610144|timestampusec = 0|loglevel = CRITICAL|charstring = Could not use /mysqllog/binlog/localhost-3306-bin for logging (error 28)
eventno = None|eventtype = MYSQL|origin = None|timestamp = 1284610144|timestampusec = 0|loglevel = CRITICAL|charstring = Could not use /mysqllog/binlog/localhost-3306-bin for logging (error 28)
eventno = None|eventtype = MYSQL|origin = None|timestamp = 1284610145|timestampusec = 0|loglevel = CRITICAL|charstring = Aborting
eventno = None|eventtype = MYSQL|origin = None|timestamp = 1284610145|timestampusec = 0|loglevel = CRITICAL|charstring = Aborting
eventno = None|eventtype = MYSQL|origin = None|timestamp = 1284610147|timestampusec = 0|loglevel = CRITICAL|charstring = ./mysqld: Shutdown complete
eventno = None|eventtype = MYSQL|origin = None|timestamp = 1284610147|timestampusec = 0|loglevel = CRITICAL|charstring = ./mysqld: Shutdown complete
eventno = None|eventtype = MYSQL|origin = None|timestamp = 1284653055|timestampusec = 0|loglevel = CRITICAL|charstring = /opt/mysql/bin/mysqld: Disk is full writing '/mysqllog/binlog/localhost-3306-bin.000020' (Errcode: 28). Waiting for someone to free space... Retry in 60 secs
eventno = None|eventtype = MYSQL|origin = None|timestamp = 1284653055|timestampusec = 0|loglevel = CRITICAL|charstring = /opt/mysql/bin/mysqld: Disk is full writing '/mysqllog/binlog/localhost-3306-bin.000020' (Errcode: 28). Waiting for someone to free space... Retry in 60 secs
eventno = None|eventtype = MYSQL|origin = None|timestamp = 1284653056|timestampusec = 0|loglevel = CRITICAL|charstring = Error writing file '/mysqllog/slow_log/localhost_3306_slow_queries.log' (errno: 1)
eventno = None|eventtype = MYSQL|origin = None|timestamp = 1284653056|timestampusec = 0|loglevel = CRITICAL|charstring = Error writing file '/mysqllog/slow_log/localhost_3306_slow_queries.log' (errno: 1)
eventno = None|eventtype = MYSQL|origin = None|timestamp = 1284653058|timestampusec = 0|loglevel = CRITICAL|charstring = Error writing file '/mysqllog/binlog/localhost-3306-bin' (errno: 28)
eventno = None|eventtype = MYSQL|origin = None|timestamp = 1284653058|timestampusec = 0|loglevel = CRITICAL|charstring = Error writing file '/mysqllog/binlog/localhost-3306-bin' (errno: 28)
eventno = None|eventtype = MYSQL|origin = None|timestamp = 1284653059|timestampusec = 0|loglevel = CRITICAL|charstring = Could not use /mysqllog/binlog/localhost-3306-bin for logging (error 28)
eventno = None|eventtype = MYSQL|origin = None|timestamp = 1284653059|timestampusec = 0|loglevel = CRITICAL|charstring = Could not use /mysqllog/binlog/localhost-3306-bin for logging (error 28)
eventno = None|eventtype = MYSQL|origin = None|timestamp = 1284653060|timestampusec = 0|loglevel = CRITICAL|charstring = Aborting
eventno = None|eventtype = MYSQL|origin = None|timestamp = 1284653060|timestampusec = 0|loglevel = CRITICAL|charstring = Aborting
eventno = None|eventtype = MYSQL|origin = None|timestamp = 1284653061|timestampusec = 0|loglevel = CRITICAL|charstring = ./mysqld: Shutdown complete
eventno = None|eventtype = MYSQL|origin = None|timestamp = 1284653061|timestampusec = 0|loglevel = CRITICAL|charstring = ./mysqld: Shutdown complete
eventno = None|eventtype = MYSQL|origin = None|timestamp = 1284653241|timestampusec = 0|loglevel = CRITICAL|charstring = /opt/mysql/bin/mysqld: Disk is full writing '/mysqllog/binlog/localhost-3306-bin.000020' (Errcode: 28). Waiting for someone to free space... Retry in 60 secs
eventno = None|eventtype = MYSQL|origin = None|timestamp = 1284653241|timestampusec = 0|loglevel = CRITICAL|charstring = /opt/mysql/bin/mysqld: Disk is full writing '/mysqllog/binlog/localhost-3306-bin.000020' (Errcode: 28). Waiting for someone to free space... Retry in 60 secs
eventno = None|eventtype = MYSQL|origin = None|timestamp = 1284653242|timestampusec = 0|loglevel = CRITICAL|charstring = Error writing file '/mysqllog/slow_log/localhost_3306_slow_queries.log' (errno: 1)
eventno = None|eventtype = MYSQL|origin = None|timestamp = 1284653242|timestampusec = 0|loglevel = CRITICAL|charstring = Error writing file '/mysqllog/slow_log/localhost_3306_slow_queries.log' (errno: 1)
eventno = None|eventtype = MYSQL|origin = None|timestamp = 1284653243|timestampusec = 0|loglevel = CRITICAL|charstring = Error writing file '/mysqllog/binlog/localhost-3306-bin' (errno: 28)
eventno = None|eventtype = MYSQL|origin = None|timestamp = 1284653243|timestampusec = 0|loglevel = CRITICAL|charstring = Error writing file '/mysqllog/binlog/localhost-3306-bin' (errno: 28)
eventno = None|eventtype = MYSQL|origin = None|timestamp = 1284653244|timestampusec = 0|loglevel = CRITICAL|charstring = Could not use /mysqllog/binlog/localhost-3306-bin for logging (error 28)
eventno = None|eventtype = MYSQL|origin = None|timestamp = 1284653244|timestampusec = 0|loglevel = CRITICAL|charstring = Could not use /mysqllog/binlog/localhost-3306-bin for logging (error 28)
eventno = None|eventtype = MYSQL|origin = None|timestamp = 1284653246|timestampusec = 0|loglevel = CRITICAL|charstring = Aborting
eventno = None|eventtype = MYSQL|origin = None|timestamp = 1284653246|timestampusec = 0|loglevel = CRITICAL|charstring = Aborting
eventno = None|eventtype = MYSQL|origin = None|timestamp = 1284653248|timestampusec = 0|loglevel = CRITICAL|charstring = ./mysqld: Shutdown complete
eventno = None|eventtype = MYSQL|origin = None|timestamp = 1284653248|timestampusec = 0|loglevel = CRITICAL|charstring = ./mysqld: Shutdown complete
eventno = None|eventtype = MYSQL|origin = None|timestamp = 1284676370|timestampusec = 0|loglevel = CRITICAL|charstring = /opt/mysql/bin/mysqld: Disk is full writing '/mysqllog/binlog/localhost-3306-bin.000020' (Errcode: 28). Waiting for someone to free space... Retry in 60 secs
eventno = None|eventtype = MYSQL|origin = None|timestamp = 1284676370|timestampusec = 0|loglevel = CRITICAL|charstring = /opt/mysql/bin/mysqld: Disk is full writing '/mysqllog/binlog/localhost-3306-bin.000020' (Errcode: 28). Waiting for someone to free space... Retry in 60 secs
eventno = None|eventtype = MYSQL|origin = None|timestamp = 1284676371|timestampusec = 0|loglevel = CRITICAL|charstring = Error writing file '/mysqllog/slow_log/localhost_3306_slow_queries.log' (errno: 1)
eventno = None|eventtype = MYSQL|origin = None|timestamp = 1284676371|timestampusec = 0|loglevel = CRITICAL|charstring = Error writing file '/mysqllog/slow_log/localhost_3306_slow_queries.log' (errno: 1)
eventno = None|eventtype = MYSQL|origin = None|timestamp = 1284676372|timestampusec = 0|loglevel = CRITICAL|charstring = Error writing file '/mysqllog/binlog/localhost-3306-bin' (errno: 28)
eventno = None|eventtype = MYSQL|origin = None|timestamp = 1284676372|timestampusec = 0|loglevel = CRITICAL|charstring = Error writing file '/mysqllog/binlog/localhost-3306-bin' (errno: 28)
eventno = None|eventtype = MYSQL|origin = None|timestamp = 1284676374|timestampusec = 0|loglevel = CRITICAL|charstring = Could not use /mysqllog/binlog/localhost-3306-bin for logging (error 28)
eventno = None|eventtype = MYSQL|origin = None|timestamp = 1284676374|timestampusec = 0|loglevel = CRITICAL|charstring = Could not use /mysqllog/binlog/localhost-3306-bin for logging (error 28)
eventno = None|eventtype = MYSQL|origin = None|timestamp = 1284676376|timestampusec = 0|loglevel = CRITICAL|charstring = Aborting
eventno = None|eventtype = MYSQL|origin = None|timestamp = 1284676376|timestampusec = 0|loglevel = CRITICAL|charstring = Aborting
eventno = None|eventtype = MYSQL|origin = None|timestamp = 1284676376|timestampusec = 0|loglevel = CRITICAL|charstring = ./mysqld: Shutdown complete
eventno = None|eventtype = MYSQL|origin = None|timestamp = 1284676376|timestampusec = 0|loglevel = CRITICAL|charstring = ./mysqld: Shutdown complete
eventno = None|eventtype = MYSQL|origin = None|timestamp = 1284676440|timestampusec = 0|loglevel = CRITICAL|charstring = /opt/mysql/bin/mysqld: Disk is full writing '/mysqllog/binlog/localhost-3306-bin.000020' (Errcode: 28). Waiting for someone to free space... Retry in 60 secs
eventno = None|eventtype = MYSQL|origin = None|timestamp = 1284676440|timestampusec = 0|loglevel = CRITICAL|charstring = /opt/mysql/bin/mysqld: Disk is full writing '/mysqllog/binlog/localhost-3306-bin.000020' (Errcode: 28). Waiting for someone to free space... Retry in 60 secs
eventno = None|eventtype = MYSQL|origin = None|timestamp = 1284676442|timestampusec = 0|loglevel = CRITICAL|charstring = Error writing file '/mysqllog/slow_log/localhost_3306_slow_queries.log' (errno: 1)
eventno = None|eventtype = MYSQL|origin = None|timestamp = 1284676442|timestampusec = 0|loglevel = CRITICAL|charstring = Error writing file '/mysqllog/slow_log/localhost_3306_slow_queries.log' (errno: 1)
eventno = None|eventtype = MYSQL|origin = None|timestamp = 1284676443|timestampusec = 0|loglevel = CRITICAL|charstring = Error writing file '/mysqllog/binlog/localhost-3306-bin' (errno: 28)
eventno = None|eventtype = MYSQL|origin = None|timestamp = 1284676443|timestampusec = 0|loglevel = CRITICAL|charstring = Error writing file '/mysqllog/binlog/localhost-3306-bin' (errno: 28)
eventno = None|eventtype = MYSQL|origin = None|timestamp = 1284676445|timestampusec = 0|loglevel = CRITICAL|charstring = Could not use /mysqllog/binlog/localhost-3306-bin for logging (error 28)
eventno = None|eventtype = MYSQL|origin = None|timestamp = 1284676445|timestampusec = 0|loglevel = CRITICAL|charstring = Could not use /mysqllog/binlog/localhost-3306-bin for logging (error 28)
eventno = None|eventtype = MYSQL|origin = None|timestamp = 1284676447|timestampusec = 0|loglevel = CRITICAL|charstring = Aborting
eventno = None|eventtype = MYSQL|origin = None|timestamp = 1284676447|timestampusec = 0|loglevel = CRITICAL|charstring = Aborting
eventno = None|eventtype = MYSQL|origin = None|timestamp = 1284676448|timestampusec = 0|loglevel = CRITICAL|charstring = ./mysqld: Shutdown complete
eventno = None|eventtype = MYSQL|origin = None|timestamp = 1284676448|timestampusec = 0|loglevel = CRITICAL|charstring = ./mysqld: Shutdown complete
Wrote 180 events to database
+=============+
| Statistics  |
+=============+
Parsing Failures     : 0
Total Input Records  : 180
Parsed Successfully  : 180
Events Output        : 180
