#############################################
#    Raw Data to Events Normalizer - v0.1a  #
#############################################
Input file: ../saf-data/db//../rawdata/argusflow_1000recs_defaultoutput.log
Output file: /tmp/temp/argus1.sqlite
Plugin attributes (with default values): 
	eventno = None
	eventtype = None
	origin = None
	timestamp = None
	timestampusec = None
	protoflags = None
	protocol = None
	sipaddr = None
	sport = None
	dir = None
	dipaddr = None
	dport = None
	totalpkts = None
	totalbytes = None
	state = None
Connecting to output database /tmp/temp/argus1.sqlite
Parsing records..
eventno = None|eventtype = UDP_FLOW|origin = None|timestamp = 1238567803|timestampusec = 632043|protoflags = e       |protocol = udp|sipaddr = 192.168.1.101|sport = 1031|dir = ->|dipaddr = 239.255.255.250|dport = 1900|totalpkts = 1|totalbytes = 143|state = INT
eventno = None|eventtype = UDP_FLOW|origin = None|timestamp = 1238567805|timestampusec = 601316|protoflags = e       |protocol = udp|sipaddr = 192.168.1.102|sport = 64040|dir = ->|dipaddr = 192.168.1.101|dport = 1031|totalpkts = 1|totalbytes = 272|state = INT
eventno = None|eventtype = ARP_FLOW|origin = None|timestamp = 1238567807|timestampusec = 621207|protoflags = e       |protocol = arp|sipaddr = 192.168.1.101|sport = None|dir = who|dipaddr = 192.168.1.102|dport = None|totalpkts = 2|totalbytes = 102|state = CON
eventno = None|eventtype = TCP_FLOW|origin = None|timestamp = 1238567807|timestampusec = 746028|protoflags = e s     |protocol = tcp|sipaddr = 192.168.1.101|sport = 1032|dir = ->|dipaddr = 192.168.1.102|dport = 8089|totalpkts = 12|totalbytes = 2259|state = FIN
eventno = None|eventtype = UDP_FLOW|origin = None|timestamp = 1238567808|timestampusec = 301054|protoflags = e       |protocol = udp|sipaddr = 192.168.1.1|sport = 3146|dir = ->|dipaddr = 192.168.1.101|dport = netbio|totalpkts = 1|totalbytes = 92|state = INT
eventno = None|eventtype = TCP_FLOW|origin = None|timestamp = 1238567810|timestampusec = 609792|protoflags = e       |protocol = tcp|sipaddr = 192.168.1.101|sport = 1033|dir = ->|dipaddr = 192.168.1.102|dport = 8089|totalpkts = 11|totalbytes = 2197|state = FIN
eventno = None|eventtype = TCP_FLOW|origin = None|timestamp = 1238567810|timestampusec = 632058|protoflags = e       |protocol = tcp|sipaddr = 192.168.1.101|sport = 1034|dir = ->|dipaddr = 192.168.1.102|dport = 8089|totalpkts = 11|totalbytes = 2197|state = FIN
eventno = None|eventtype = TCP_FLOW|origin = None|timestamp = 1238567810|timestampusec = 655166|protoflags = e       |protocol = tcp|sipaddr = 192.168.1.101|sport = 1035|dir = ->|dipaddr = 192.168.1.102|dport = 8089|totalpkts = 7|totalbytes = 863|state = FIN
eventno = None|eventtype = TCP_FLOW|origin = None|timestamp = 1238567815|timestampusec = 648123|protoflags = e       |protocol = tcp|sipaddr = 192.168.1.101|sport = 1036|dir = ->|dipaddr = 192.168.1.1|dport = micros|totalpkts = 2|totalbytes = 122|state = RST
eventno = None|eventtype = UDP_FLOW|origin = None|timestamp = 1238567815|timestampusec = 764873|protoflags = e       |protocol = udp|sipaddr = 192.168.1.101|sport = 1037|dir = <->|dipaddr = 65.32.5.111|dport = domain|totalpkts = 2|totalbytes = 227|state = CON
eventno = None|eventtype = TCP_FLOW|origin = None|timestamp = 1238567815|timestampusec = 777635|protoflags = e       |protocol = tcp|sipaddr = 192.168.1.101|sport = 1038|dir = ->|dipaddr = 66.114.124.141|dport = www|totalpkts = 10|totalbytes = 1679|state = FIN
eventno = None|eventtype = UDP_FLOW|origin = None|timestamp = 1238567815|timestampusec = 934347|protoflags = e       |protocol = udp|sipaddr = 192.168.1.101|sport = 1037|dir = <->|dipaddr = 65.32.5.111|dport = domain|totalpkts = 2|totalbytes = 262|state = CON
eventno = None|eventtype = TCP_FLOW|origin = None|timestamp = 1238567815|timestampusec = 951377|protoflags = e       |protocol = tcp|sipaddr = 192.168.1.101|sport = 1039|dir = ->|dipaddr = 75.126.138.202|dport = www|totalpkts = 8|totalbytes = 750|state = FIN
eventno = None|eventtype = UDP_FLOW|origin = None|timestamp = 1238567816|timestampusec = 30154|protoflags = e       |protocol = udp|sipaddr = 192.168.1.101|sport = 1037|dir = <->|dipaddr = 65.32.5.111|dport = domain|totalpkts = 2|totalbytes = 358|state = CON
eventno = None|eventtype = TCP_FLOW|origin = None|timestamp = 1238567816|timestampusec = 47398|protoflags = e       |protocol = tcp|sipaddr = 192.168.1.101|sport = 1040|dir = ->|dipaddr = 208.78.69.70|dport = www|totalpkts = 9|totalbytes = 904|state = FIN
eventno = None|eventtype = TCP_FLOW|origin = None|timestamp = 1238567818|timestampusec = 678653|protoflags = e       |protocol = tcp|sipaddr = 192.168.1.101|sport = 1036|dir = ->|dipaddr = 192.168.1.1|dport = micros|totalpkts = 2|totalbytes = 122|state = RST
eventno = None|eventtype = ARP_FLOW|origin = None|timestamp = 1238567819|timestampusec = 866394|protoflags = e       |protocol = arp|sipaddr = 192.168.1.101|sport = None|dir = who|dipaddr = 192.168.1.2|dport = None|totalpkts = 2|totalbytes = 84|state = INT
eventno = None|eventtype = UDP_FLOW|origin = None|timestamp = 1238567819|timestampusec = 930425|protoflags = e       |protocol = udp|sipaddr = 192.168.1.1|sport = 3146|dir = ->|dipaddr = 192.168.1.101|dport = netbio|totalpkts = 1|totalbytes = 92|state = INT
eventno = None|eventtype = ARP_FLOW|origin = None|timestamp = 1238567824|timestampusec = 69485|protoflags = e       |protocol = arp|sipaddr = 192.168.1.101|sport = None|dir = who|dipaddr = 192.168.1.3|dport = None|totalpkts = 1|totalbytes = 42|state = INT
eventno = None|eventtype = ARP_FLOW|origin = None|timestamp = 1238567828|timestampusec = 272519|protoflags = e       |protocol = arp|sipaddr = 192.168.1.101|sport = None|dir = who|dipaddr = 192.168.1.4|dport = None|totalpkts = 1|totalbytes = 42|state = INT
eventno = None|eventtype = UDP_FLOW|origin = None|timestamp = 1238567828|timestampusec = 584823|protoflags = e       |protocol = udp|sipaddr = 192.168.1.101|sport = netbio|dir = ->|dipaddr = 192.168.1.255|dport = netbio|totalpkts = 1|totalbytes = 243|state = INT
eventno = None|eventtype = IGMP_FLOW|origin = None|timestamp = 1238567829|timestampusec = 185156|protoflags = e       |protocol = igmp|sipaddr = 10.118.64.1|sport = None|dir = ->|dipaddr = 224.0.0.1|dport = None|totalpkts = 1|totalbytes = 60|state = INT
eventno = None|eventtype = IGMP_FLOW|origin = None|timestamp = 1238567829|timestampusec = 455989|protoflags = e       |protocol = igmp|sipaddr = 192.168.1.102|sport = None|dir = ->|dipaddr = 239.255.255.250|dport = None|totalpkts = 1|totalbytes = 60|state = INT
eventno = None|eventtype = IGMP_FLOW|origin = None|timestamp = 1238567830|timestampusec = 149863|protoflags = e       |protocol = igmp|sipaddr = 192.168.1.102|sport = None|dir = ->|dipaddr = 224.0.0.251|dport = None|totalpkts = 1|totalbytes = 60|state = INT
eventno = None|eventtype = ARP_FLOW|origin = None|timestamp = 1238567832|timestampusec = 475605|protoflags = e       |protocol = arp|sipaddr = 192.168.1.101|sport = None|dir = who|dipaddr = 192.168.1.5|dport = None|totalpkts = 1|totalbytes = 42|state = INT
eventno = None|eventtype = IGMP_FLOW|origin = None|timestamp = 1238567835|timestampusec = 99636|protoflags = e       |protocol = igmp|sipaddr = 192.168.1.102|sport = None|dir = ->|dipaddr = 224.0.1.60|dport = None|totalpkts = 1|totalbytes = 60|state = INT
eventno = None|eventtype = ARP_FLOW|origin = None|timestamp = 1238567836|timestampusec = 678674|protoflags = e       |protocol = arp|sipaddr = 192.168.1.101|sport = None|dir = who|dipaddr = 192.168.1.6|dport = None|totalpkts = 1|totalbytes = 42|state = INT
eventno = None|eventtype = ARP_FLOW|origin = None|timestamp = 1238567840|timestampusec = 881719|protoflags = e       |protocol = arp|sipaddr = 192.168.1.101|sport = None|dir = who|dipaddr = 192.168.1.7|dport = None|totalpkts = 2|totalbytes = 84|state = INT
eventno = None|eventtype = ARP_FLOW|origin = None|timestamp = 1238567845|timestampusec = 84814|protoflags = e       |protocol = arp|sipaddr = 192.168.1.101|sport = None|dir = who|dipaddr = 192.168.1.8|dport = None|totalpkts = 1|totalbytes = 42|state = INT
eventno = None|eventtype = ARP_FLOW|origin = None|timestamp = 1238567849|timestampusec = 287840|protoflags = e       |protocol = arp|sipaddr = 192.168.1.101|sport = None|dir = who|dipaddr = 192.168.1.9|dport = None|totalpkts = 2|totalbytes = 84|state = INT
eventno = None|eventtype = ARP_FLOW|origin = None|timestamp = 1238567853|timestampusec = 490973|protoflags = e       |protocol = arp|sipaddr = 192.168.1.101|sport = None|dir = who|dipaddr = 192.168.1.10|dport = None|totalpkts = 1|totalbytes = 42|state = INT
eventno = None|eventtype = ARP_FLOW|origin = None|timestamp = 1238567857|timestampusec = 694010|protoflags = e       |protocol = arp|sipaddr = 192.168.1.101|sport = None|dir = who|dipaddr = 192.168.1.11|dport = None|totalpkts = 1|totalbytes = 42|state = INT
eventno = None|eventtype = ARP_FLOW|origin = None|timestamp = 1238567861|timestampusec = 897083|protoflags = e       |protocol = arp|sipaddr = 192.168.1.101|sport = None|dir = who|dipaddr = 192.168.1.12|dport = None|totalpkts = 2|totalbytes = 84|state = INT
eventno = None|eventtype = ARP_FLOW|origin = None|timestamp = 1238567866|timestampusec = 100156|protoflags = e       |protocol = arp|sipaddr = 192.168.1.101|sport = None|dir = who|dipaddr = 192.168.1.13|dport = None|totalpkts = 1|totalbytes = 42|state = INT
eventno = None|eventtype = ARP_FLOW|origin = None|timestamp = 1238567870|timestampusec = 303228|protoflags = e       |protocol = arp|sipaddr = 192.168.1.101|sport = None|dir = who|dipaddr = 192.168.1.14|dport = None|totalpkts = 2|totalbytes = 84|state = INT
eventno = None|eventtype = ARP_FLOW|origin = None|timestamp = 1238567874|timestampusec = 506280|protoflags = e       |protocol = arp|sipaddr = 192.168.1.101|sport = None|dir = who|dipaddr = 192.168.1.15|dport = None|totalpkts = 1|totalbytes = 42|state = INT
eventno = None|eventtype = ARP_FLOW|origin = None|timestamp = 1238567878|timestampusec = 709354|protoflags = e       |protocol = arp|sipaddr = 192.168.1.101|sport = None|dir = who|dipaddr = 192.168.1.16|dport = None|totalpkts = 1|totalbytes = 42|state = INT
eventno = None|eventtype = ARP_FLOW|origin = None|timestamp = 1238567882|timestampusec = 912422|protoflags = e       |protocol = arp|sipaddr = 192.168.1.101|sport = None|dir = who|dipaddr = 192.168.1.17|dport = None|totalpkts = 2|totalbytes = 84|state = INT
eventno = None|eventtype = ARP_FLOW|origin = None|timestamp = 1238567887|timestampusec = 115485|protoflags = e       |protocol = arp|sipaddr = 192.168.1.101|sport = None|dir = who|dipaddr = 192.168.1.18|dport = None|totalpkts = 1|totalbytes = 42|state = INT
eventno = None|eventtype = UDP_FLOW|origin = None|timestamp = 1238567888|timestampusec = 632696|protoflags = e       |protocol = udp|sipaddr = 192.168.1.102|sport = 1900|dir = ->|dipaddr = 239.255.255.250|dport = 1900|totalpkts = 10|totalbytes = 3456|state = INT
eventno = None|eventtype = IGMP_FLOW|origin = None|timestamp = 1238567889|timestampusec = 190068|protoflags = e       |protocol = igmp|sipaddr = 10.118.64.1|sport = None|dir = ->|dipaddr = 224.0.0.1|dport = None|totalpkts = 1|totalbytes = 60|state = INT
eventno = None|eventtype = ARP_FLOW|origin = None|timestamp = 1238567891|timestampusec = 318545|protoflags = e       |protocol = arp|sipaddr = 192.168.1.101|sport = None|dir = who|dipaddr = 192.168.1.19|dport = None|totalpkts = 2|totalbytes = 84|state = INT
eventno = None|eventtype = IGMP_FLOW|origin = None|timestamp = 1238567894|timestampusec = 980868|protoflags = e       |protocol = igmp|sipaddr = 192.168.1.102|sport = None|dir = ->|dipaddr = 239.255.255.250|dport = None|totalpkts = 1|totalbytes = 60|state = INT
eventno = None|eventtype = ARP_FLOW|origin = None|timestamp = 1238567895|timestampusec = 521643|protoflags = e       |protocol = arp|sipaddr = 192.168.1.101|sport = None|dir = who|dipaddr = 192.168.1.20|dport = None|totalpkts = 1|totalbytes = 42|state = INT
eventno = None|eventtype = IGMP_FLOW|origin = None|timestamp = 1238567897|timestampusec = 947405|protoflags = e       |protocol = igmp|sipaddr = 192.168.1.102|sport = None|dir = ->|dipaddr = 224.0.0.251|dport = None|totalpkts = 1|totalbytes = 60|state = INT
eventno = None|eventtype = IGMP_FLOW|origin = None|timestamp = 1238567897|timestampusec = 997379|protoflags = e       |protocol = igmp|sipaddr = 192.168.1.102|sport = None|dir = ->|dipaddr = 224.0.1.60|dport = None|totalpkts = 1|totalbytes = 60|state = INT
eventno = None|eventtype = ARP_FLOW|origin = None|timestamp = 1238567899|timestampusec = 724678|protoflags = e       |protocol = arp|sipaddr = 192.168.1.101|sport = None|dir = who|dipaddr = 192.168.1.21|dport = None|totalpkts = 2|totalbytes = 84|state = INT
eventno = None|eventtype = ARP_FLOW|origin = None|timestamp = 1238567903|timestampusec = 927726|protoflags = e       |protocol = arp|sipaddr = 192.168.1.101|sport = None|dir = who|dipaddr = 192.168.1.22|dport = None|totalpkts = 2|totalbytes = 84|state = INT
eventno = None|eventtype = UDP_FLOW|origin = None|timestamp = 1238567906|timestampusec = 608061|protoflags = e       |protocol = udp|sipaddr = 192.168.1.101|sport = netbio|dir = ->|dipaddr = 192.168.1.255|dport = netbio|totalpkts = 2|totalbytes = 432|state = INT
eventno = None|eventtype = UDP_FLOW|origin = None|timestamp = 1238567906|timestampusec = 608111|protoflags = e       |protocol = udp|sipaddr = 192.168.1.101|sport = netbio|dir = ->|dipaddr = 192.168.1.255|dport = netbio|totalpkts = 5|totalbytes = 460|state = INT
eventno = None|eventtype = ARP_FLOW|origin = None|timestamp = 1238567908|timestampusec = 130895|protoflags = e       |protocol = arp|sipaddr = 192.168.1.101|sport = None|dir = who|dipaddr = 192.168.1.23|dport = None|totalpkts = 1|totalbytes = 42|state = INT
eventno = None|eventtype = ARP_FLOW|origin = None|timestamp = 1238567912|timestampusec = 333895|protoflags = e       |protocol = arp|sipaddr = 192.168.1.101|sport = None|dir = who|dipaddr = 192.168.1.24|dport = None|totalpkts = 2|totalbytes = 84|state = INT
eventno = None|eventtype = UDP_FLOW|origin = None|timestamp = 1238567912|timestampusec = 349234|protoflags = e       |protocol = udp|sipaddr = 192.168.1.101|sport = netbio|dir = ->|dipaddr = 192.168.1.255|dport = netbio|totalpkts = 4|totalbytes = 368|state = INT
eventno = None|eventtype = UDP_FLOW|origin = None|timestamp = 1238567915|timestampusec = 99221|protoflags = e       |protocol = udp|sipaddr = 192.168.1.101|sport = netbio|dir = ->|dipaddr = 192.168.1.255|dport = netbio|totalpkts = 1|totalbytes = 216|state = INT
eventno = None|eventtype = ARP_FLOW|origin = None|timestamp = 1238567916|timestampusec = 536942|protoflags = e       |protocol = arp|sipaddr = 192.168.1.101|sport = None|dir = who|dipaddr = 192.168.1.25|dport = None|totalpkts = 1|totalbytes = 42|state = INT
eventno = None|eventtype = UDP_FLOW|origin = None|timestamp = 1238567919|timestampusec = 349164|protoflags = e       |protocol = udp|sipaddr = 192.168.1.101|sport = netbio|dir = ->|dipaddr = 192.168.1.255|dport = netbio|totalpkts = 3|totalbytes = 276|state = INT
eventno = None|eventtype = ARP_FLOW|origin = None|timestamp = 1238567920|timestampusec = 740014|protoflags = e       |protocol = arp|sipaddr = 192.168.1.101|sport = None|dir = who|dipaddr = 192.168.1.26|dport = None|totalpkts = 1|totalbytes = 42|state = INT
eventno = None|eventtype = ARP_FLOW|origin = None|timestamp = 1238567924|timestampusec = 943074|protoflags = e       |protocol = arp|sipaddr = 192.168.1.101|sport = None|dir = who|dipaddr = 192.168.1.27|dport = None|totalpkts = 1|totalbytes = 42|state = INT
eventno = None|eventtype = ARP_FLOW|origin = None|timestamp = 1238567929|timestampusec = 146128|protoflags = e       |protocol = arp|sipaddr = 192.168.1.101|sport = None|dir = who|dipaddr = 192.168.1.28|dport = None|totalpkts = 1|totalbytes = 42|state = INT
eventno = None|eventtype = ARP_FLOW|origin = None|timestamp = 1238567933|timestampusec = 349214|protoflags = e       |protocol = arp|sipaddr = 192.168.1.101|sport = None|dir = who|dipaddr = 192.168.1.29|dport = None|totalpkts = 1|totalbytes = 42|state = INT
eventno = None|eventtype = ARP_FLOW|origin = None|timestamp = 1238567937|timestampusec = 552261|protoflags = e       |protocol = arp|sipaddr = 192.168.1.101|sport = None|dir = who|dipaddr = 192.168.1.30|dport = None|totalpkts = 1|totalbytes = 42|state = INT
eventno = None|eventtype = ARP_FLOW|origin = None|timestamp = 1238567941|timestampusec = 755359|protoflags = e       |protocol = arp|sipaddr = 192.168.1.101|sport = None|dir = who|dipaddr = 192.168.1.31|dport = None|totalpkts = 1|totalbytes = 42|state = INT
eventno = None|eventtype = ARP_FLOW|origin = None|timestamp = 1238567945|timestampusec = 958403|protoflags = e       |protocol = arp|sipaddr = 192.168.1.101|sport = None|dir = who|dipaddr = 192.168.1.32|dport = None|totalpkts = 1|totalbytes = 42|state = INT
eventno = None|eventtype = IGMP_FLOW|origin = None|timestamp = 1238567949|timestampusec = 50773|protoflags = e       |protocol = igmp|sipaddr = 192.168.1.1|sport = None|dir = ->|dipaddr = 224.0.0.1|dport = None|totalpkts = 1|totalbytes = 60|state = INT
eventno = None|eventtype = IGMP_FLOW|origin = None|timestamp = 1238567949|timestampusec = 199620|protoflags = e       |protocol = igmp|sipaddr = 10.118.64.1|sport = None|dir = ->|dipaddr = 224.0.0.1|dport = None|totalpkts = 1|totalbytes = 60|state = INT
eventno = None|eventtype = UDP_FLOW|origin = None|timestamp = 1238567949|timestampusec = 567539|protoflags = e       |protocol = udp|sipaddr = 192.168.1.101|sport = netbio|dir = ->|dipaddr = 192.168.1.255|dport = netbio|totalpkts = 1|totalbytes = 243|state = INT
eventno = None|eventtype = ARP_FLOW|origin = None|timestamp = 1238567950|timestampusec = 161476|protoflags = e       |protocol = arp|sipaddr = 192.168.1.101|sport = None|dir = who|dipaddr = 192.168.1.33|dport = None|totalpkts = 1|totalbytes = 42|state = INT
eventno = None|eventtype = IGMP_FLOW|origin = None|timestamp = 1238567950|timestampusec = 512265|protoflags = e       |protocol = igmp|sipaddr = 192.168.1.102|sport = None|dir = ->|dipaddr = 224.0.1.60|dport = None|totalpkts = 1|totalbytes = 60|state = INT
eventno = None|eventtype = IGMP_FLOW|origin = None|timestamp = 1238567950|timestampusec = 754956|protoflags = e       |protocol = igmp|sipaddr = 192.168.1.101|sport = None|dir = ->|dipaddr = 239.255.255.250|dport = None|totalpkts = 1|totalbytes = 46|state = INT
eventno = None|eventtype = ARP_FLOW|origin = None|timestamp = 1238567954|timestampusec = 364537|protoflags = e       |protocol = arp|sipaddr = 192.168.1.101|sport = None|dir = who|dipaddr = 192.168.1.34|dport = None|totalpkts = 1|totalbytes = 42|state = INT
eventno = None|eventtype = IGMP_FLOW|origin = None|timestamp = 1238567957|timestampusec = 345653|protoflags = e       |protocol = igmp|sipaddr = 192.168.1.102|sport = None|dir = ->|dipaddr = 224.0.0.251|dport = None|totalpkts = 1|totalbytes = 60|state = INT
eventno = None|eventtype = ARP_FLOW|origin = None|timestamp = 1238567958|timestampusec = 567616|protoflags = e       |protocol = arp|sipaddr = 192.168.1.101|sport = None|dir = who|dipaddr = 192.168.1.35|dport = None|totalpkts = 1|totalbytes = 42|state = INT
eventno = None|eventtype = ARP_FLOW|origin = None|timestamp = 1238567962|timestampusec = 770676|protoflags = e       |protocol = arp|sipaddr = 192.168.1.101|sport = None|dir = who|dipaddr = 192.168.1.36|dport = None|totalpkts = 1|totalbytes = 42|state = INT
eventno = None|eventtype = ARP_FLOW|origin = None|timestamp = 1238567966|timestampusec = 973726|protoflags = e       |protocol = arp|sipaddr = 192.168.1.101|sport = None|dir = who|dipaddr = 192.168.1.37|dport = None|totalpkts = 2|totalbytes = 84|state = INT
eventno = None|eventtype = ARP_FLOW|origin = None|timestamp = 1238567971|timestampusec = 176814|protoflags = e       |protocol = arp|sipaddr = 192.168.1.101|sport = None|dir = who|dipaddr = 192.168.1.38|dport = None|totalpkts = 1|totalbytes = 42|state = INT
eventno = None|eventtype = ARP_FLOW|origin = None|timestamp = 1238567975|timestampusec = 379882|protoflags = e       |protocol = arp|sipaddr = 192.168.1.101|sport = None|dir = who|dipaddr = 192.168.1.39|dport = None|totalpkts = 1|totalbytes = 42|state = INT
eventno = None|eventtype = ARP_FLOW|origin = None|timestamp = 1238567979|timestampusec = 582947|protoflags = e       |protocol = arp|sipaddr = 192.168.1.101|sport = None|dir = who|dipaddr = 192.168.1.40|dport = None|totalpkts = 1|totalbytes = 42|state = INT
eventno = None|eventtype = ARP_FLOW|origin = None|timestamp = 1238567983|timestampusec = 786031|protoflags = e       |protocol = arp|sipaddr = 192.168.1.101|sport = None|dir = who|dipaddr = 192.168.1.41|dport = None|totalpkts = 1|totalbytes = 42|state = INT
eventno = None|eventtype = UDP_FLOW|origin = None|timestamp = 1238567985|timestampusec = 500439|protoflags = e       |protocol = udp|sipaddr = 192.168.1.1|sport = 3147|dir = ->|dipaddr = 192.168.1.101|dport = netbio|totalpkts = 1|totalbytes = 92|state = INT
eventno = None|eventtype = ARP_FLOW|origin = None|timestamp = 1238567987|timestampusec = 989072|protoflags = e       |protocol = arp|sipaddr = 192.168.1.101|sport = None|dir = who|dipaddr = 192.168.1.42|dport = None|totalpkts = 2|totalbytes = 84|state = INT
eventno = None|eventtype = ARP_FLOW|origin = None|timestamp = 1238567992|timestampusec = 192159|protoflags = e       |protocol = arp|sipaddr = 192.168.1.101|sport = None|dir = who|dipaddr = 192.168.1.43|dport = None|totalpkts = 1|totalbytes = 42|state = INT
eventno = None|eventtype = ARP_FLOW|origin = None|timestamp = 1238567996|timestampusec = 395216|protoflags = e       |protocol = arp|sipaddr = 192.168.1.101|sport = None|dir = who|dipaddr = 192.168.1.44|dport = None|totalpkts = 2|totalbytes = 84|state = INT
eventno = None|eventtype = UDP_FLOW|origin = None|timestamp = 1238567997|timestampusec = 875972|protoflags = e       |protocol = udp|sipaddr = 192.168.1.1|sport = 3147|dir = ->|dipaddr = 192.168.1.101|dport = netbio|totalpkts = 1|totalbytes = 92|state = INT
eventno = None|eventtype = ARP_FLOW|origin = None|timestamp = 1238568000|timestampusec = 598289|protoflags = e       |protocol = arp|sipaddr = 192.168.1.101|sport = None|dir = who|dipaddr = 192.168.1.45|dport = None|totalpkts = 1|totalbytes = 42|state = INT
eventno = None|eventtype = ARP_FLOW|origin = None|timestamp = 1238568004|timestampusec = 801344|protoflags = e       |protocol = arp|sipaddr = 192.168.1.101|sport = None|dir = who|dipaddr = 192.168.1.46|dport = None|totalpkts = 1|totalbytes = 42|state = INT
eventno = None|eventtype = ARP_FLOW|origin = None|timestamp = 1238568009|timestampusec = 4430|protoflags = e       |protocol = arp|sipaddr = 192.168.1.101|sport = None|dir = who|dipaddr = 192.168.1.47|dport = None|totalpkts = 2|totalbytes = 84|state = INT
eventno = None|eventtype = IGMP_FLOW|origin = None|timestamp = 1238568009|timestampusec = 303288|protoflags = e       |protocol = igmp|sipaddr = 10.118.64.1|sport = None|dir = ->|dipaddr = 224.0.0.1|dport = None|totalpkts = 1|totalbytes = 60|state = INT
eventno = None|eventtype = IGMP_FLOW|origin = None|timestamp = 1238568009|timestampusec = 660804|protoflags = e       |protocol = igmp|sipaddr = 192.168.1.102|sport = None|dir = ->|dipaddr = 224.0.1.60|dport = None|totalpkts = 1|totalbytes = 60|state = INT
eventno = None|eventtype = UDP_FLOW|origin = None|timestamp = 1238568010|timestampusec = 822910|protoflags = e       |protocol = udp|sipaddr = 192.168.1.1|sport = 3148|dir = ->|dipaddr = 192.168.1.101|dport = netbio|totalpkts = 1|totalbytes = 92|state = INT
eventno = None|eventtype = IGMP_FLOW|origin = None|timestamp = 1238568010|timestampusec = 943518|protoflags = e       |protocol = igmp|sipaddr = 192.168.1.102|sport = None|dir = ->|dipaddr = 239.255.255.250|dport = None|totalpkts = 1|totalbytes = 60|state = INT
eventno = None|eventtype = ARP_FLOW|origin = None|timestamp = 1238568013|timestampusec = 207493|protoflags = e       |protocol = arp|sipaddr = 192.168.1.101|sport = None|dir = who|dipaddr = 192.168.1.48|dport = None|totalpkts = 1|totalbytes = 42|state = INT
eventno = None|eventtype = IGMP_FLOW|origin = None|timestamp = 1238568015|timestampusec = 126842|protoflags = e       |protocol = igmp|sipaddr = 192.168.1.102|sport = None|dir = ->|dipaddr = 224.0.0.251|dport = None|totalpkts = 1|totalbytes = 60|state = INT
eventno = None|eventtype = ARP_FLOW|origin = None|timestamp = 1238568017|timestampusec = 411644|protoflags = e       |protocol = arp|sipaddr = 192.168.1.101|sport = None|dir = who|dipaddr = 192.168.1.49|dport = None|totalpkts = 2|totalbytes = 84|state = INT
eventno = None|eventtype = UDP_FLOW|origin = None|timestamp = 1238568020|timestampusec = 86139|protoflags = e       |protocol = udp|sipaddr = 192.168.1.1|sport = 3148|dir = ->|dipaddr = 192.168.1.101|dport = netbio|totalpkts = 1|totalbytes = 92|state = INT
eventno = None|eventtype = ARP_FLOW|origin = None|timestamp = 1238568021|timestampusec = 613608|protoflags = e       |protocol = arp|sipaddr = 192.168.1.101|sport = None|dir = who|dipaddr = 192.168.1.50|dport = None|totalpkts = 1|totalbytes = 42|state = INT
eventno = None|eventtype = ARP_FLOW|origin = None|timestamp = 1238568025|timestampusec = 816683|protoflags = e       |protocol = arp|sipaddr = 192.168.1.101|sport = None|dir = who|dipaddr = 192.168.1.51|dport = None|totalpkts = 1|totalbytes = 42|state = INT
eventno = None|eventtype = ARP_FLOW|origin = None|timestamp = 1238568030|timestampusec = 19761|protoflags = e       |protocol = arp|sipaddr = 192.168.1.101|sport = None|dir = who|dipaddr = 192.168.1.52|dport = None|totalpkts = 2|totalbytes = 84|state = INT
eventno = None|eventtype = ARP_FLOW|origin = None|timestamp = 1238568034|timestampusec = 222832|protoflags = e       |protocol = arp|sipaddr = 192.168.1.101|sport = None|dir = who|dipaddr = 192.168.1.53|dport = None|totalpkts = 1|totalbytes = 42|state = INT
eventno = None|eventtype = UDP_FLOW|origin = None|timestamp = 1238568036|timestampusec = 134264|protoflags = e       |protocol = udp|sipaddr = 192.168.1.1|sport = 3149|dir = ->|dipaddr = 192.168.1.101|dport = netbio|totalpkts = 1|totalbytes = 92|state = INT
eventno = None|eventtype = ARP_FLOW|origin = None|timestamp = 1238568038|timestampusec = 425888|protoflags = e       |protocol = arp|sipaddr = 192.168.1.101|sport = None|dir = who|dipaddr = 192.168.1.54|dport = None|totalpkts = 2|totalbytes = 84|state = INT
eventno = None|eventtype = UDP_FLOW|origin = None|timestamp = 1238568042|timestampusec = 297991|protoflags = e       |protocol = udp|sipaddr = 192.168.1.1|sport = 3149|dir = ->|dipaddr = 192.168.1.101|dport = netbio|totalpkts = 1|totalbytes = 92|state = INT
eventno = None|eventtype = ARP_FLOW|origin = None|timestamp = 1238568042|timestampusec = 628966|protoflags = e       |protocol = arp|sipaddr = 192.168.1.101|sport = None|dir = who|dipaddr = 192.168.1.55|dport = None|totalpkts = 1|totalbytes = 42|state = INT
eventno = None|eventtype = ARP_FLOW|origin = None|timestamp = 1238568046|timestampusec = 832057|protoflags = e       |protocol = arp|sipaddr = 192.168.1.101|sport = None|dir = who|dipaddr = 192.168.1.56|dport = None|totalpkts = 1|totalbytes = 42|state = INT
eventno = None|eventtype = ARP_FLOW|origin = None|timestamp = 1238568051|timestampusec = 35966|protoflags = e       |protocol = arp|sipaddr = 192.168.1.101|sport = None|dir = who|dipaddr = 192.168.1.57|dport = None|totalpkts = 1|totalbytes = 42|state = INT
eventno = None|eventtype = ARP_FLOW|origin = None|timestamp = 1238568055|timestampusec = 238161|protoflags = e       |protocol = arp|sipaddr = 192.168.1.101|sport = None|dir = who|dipaddr = 192.168.1.58|dport = None|totalpkts = 1|totalbytes = 42|state = INT
eventno = None|eventtype = ARP_FLOW|origin = None|timestamp = 1238568059|timestampusec = 441230|protoflags = e       |protocol = arp|sipaddr = 192.168.1.101|sport = None|dir = who|dipaddr = 192.168.1.59|dport = None|totalpkts = 2|totalbytes = 84|state = INT
eventno = None|eventtype = ARP_FLOW|origin = None|timestamp = 1238568063|timestampusec = 644329|protoflags = e       |protocol = arp|sipaddr = 192.168.1.101|sport = None|dir = who|dipaddr = 192.168.1.60|dport = None|totalpkts = 1|totalbytes = 42|state = INT
eventno = None|eventtype = ARP_FLOW|origin = None|timestamp = 1238568067|timestampusec = 847355|protoflags = e       |protocol = arp|sipaddr = 192.168.1.101|sport = None|dir = who|dipaddr = 192.168.1.61|dport = None|totalpkts = 1|totalbytes = 42|state = INT
eventno = None|eventtype = IGMP_FLOW|origin = None|timestamp = 1238568069|timestampusec = 430367|protoflags = e       |protocol = igmp|sipaddr = 10.118.64.1|sport = None|dir = ->|dipaddr = 224.0.0.1|dport = None|totalpkts = 1|totalbytes = 60|state = INT
eventno = None|eventtype = ARP_FLOW|origin = None|timestamp = 1238568072|timestampusec = 50443|protoflags = e       |protocol = arp|sipaddr = 192.168.1.101|sport = None|dir = who|dipaddr = 192.168.1.62|dport = None|totalpkts = 1|totalbytes = 42|state = INT
eventno = None|eventtype = IGMP_FLOW|origin = None|timestamp = 1238568073|timestampusec = 808152|protoflags = e       |protocol = igmp|sipaddr = 192.168.1.102|sport = None|dir = ->|dipaddr = 224.0.0.251|dport = None|totalpkts = 1|totalbytes = 60|state = INT
eventno = None|eventtype = IGMP_FLOW|origin = None|timestamp = 1238568075|timestampusec = 341470|protoflags = e       |protocol = igmp|sipaddr = 192.168.1.102|sport = None|dir = ->|dipaddr = 239.255.255.250|dport = None|totalpkts = 1|totalbytes = 60|state = INT
eventno = None|eventtype = ARP_FLOW|origin = None|timestamp = 1238568076|timestampusec = 253500|protoflags = e       |protocol = arp|sipaddr = 192.168.1.101|sport = None|dir = who|dipaddr = 192.168.1.63|dport = None|totalpkts = 1|totalbytes = 42|state = INT
eventno = None|eventtype = IGMP_FLOW|origin = None|timestamp = 1238568076|timestampusec = 874728|protoflags = e       |protocol = igmp|sipaddr = 192.168.1.102|sport = None|dir = ->|dipaddr = 224.0.1.60|dport = None|totalpkts = 1|totalbytes = 60|state = INT
eventno = None|eventtype = ARP_FLOW|origin = None|timestamp = 1238568080|timestampusec = 456579|protoflags = e       |protocol = arp|sipaddr = 192.168.1.101|sport = None|dir = who|dipaddr = 192.168.1.64|dport = None|totalpkts = 1|totalbytes = 42|state = INT
eventno = None|eventtype = ARP_FLOW|origin = None|timestamp = 1238568084|timestampusec = 659620|protoflags = e       |protocol = arp|sipaddr = 192.168.1.101|sport = None|dir = who|dipaddr = 192.168.1.65|dport = None|totalpkts = 2|totalbytes = 84|state = INT
eventno = None|eventtype = ARP_FLOW|origin = None|timestamp = 1238568088|timestampusec = 862668|protoflags = e       |protocol = arp|sipaddr = 192.168.1.101|sport = None|dir = who|dipaddr = 192.168.1.66|dport = None|totalpkts = 1|totalbytes = 42|state = INT
eventno = None|eventtype = ARP_FLOW|origin = None|timestamp = 1238568093|timestampusec = 65741|protoflags = e       |protocol = arp|sipaddr = 192.168.1.101|sport = None|dir = who|dipaddr = 192.168.1.67|dport = None|totalpkts = 1|totalbytes = 42|state = INT
eventno = None|eventtype = ARP_FLOW|origin = None|timestamp = 1238568097|timestampusec = 268810|protoflags = e       |protocol = arp|sipaddr = 192.168.1.101|sport = None|dir = who|dipaddr = 192.168.1.68|dport = None|totalpkts = 1|totalbytes = 42|state = INT
eventno = None|eventtype = ARP_FLOW|origin = None|timestamp = 1238568101|timestampusec = 471883|protoflags = e       |protocol = arp|sipaddr = 192.168.1.101|sport = None|dir = who|dipaddr = 192.168.1.69|dport = None|totalpkts = 1|totalbytes = 42|state = INT
eventno = None|eventtype = ARP_FLOW|origin = None|timestamp = 1238568105|timestampusec = 674925|protoflags = e       |protocol = arp|sipaddr = 192.168.1.101|sport = None|dir = who|dipaddr = 192.168.1.70|dport = None|totalpkts = 2|totalbytes = 84|state = INT
eventno = None|eventtype = ARP_FLOW|origin = None|timestamp = 1238568109|timestampusec = 878027|protoflags = e       |protocol = arp|sipaddr = 192.168.1.101|sport = None|dir = who|dipaddr = 192.168.1.71|dport = None|totalpkts = 1|totalbytes = 42|state = INT
eventno = None|eventtype = ARP_FLOW|origin = None|timestamp = 1238568114|timestampusec = 81080|protoflags = e       |protocol = arp|sipaddr = 192.168.1.101|sport = None|dir = who|dipaddr = 192.168.1.72|dport = None|totalpkts = 2|totalbytes = 84|state = INT
eventno = None|eventtype = ARP_FLOW|origin = None|timestamp = 1238568118|timestampusec = 284147|protoflags = e       |protocol = arp|sipaddr = 192.168.1.101|sport = None|dir = who|dipaddr = 192.168.1.73|dport = None|totalpkts = 1|totalbytes = 42|state = INT
eventno = None|eventtype = ARP_FLOW|origin = None|timestamp = 1238568122|timestampusec = 487221|protoflags = e       |protocol = arp|sipaddr = 192.168.1.101|sport = None|dir = who|dipaddr = 192.168.1.74|dport = None|totalpkts = 1|totalbytes = 42|state = INT
eventno = None|eventtype = ARP_FLOW|origin = None|timestamp = 1238568126|timestampusec = 690290|protoflags = e       |protocol = arp|sipaddr = 192.168.1.101|sport = None|dir = who|dipaddr = 192.168.1.75|dport = None|totalpkts = 2|totalbytes = 84|state = INT
eventno = None|eventtype = IGMP_FLOW|origin = None|timestamp = 1238568129|timestampusec = 287055|protoflags = e       |protocol = igmp|sipaddr = 192.168.1.1|sport = None|dir = ->|dipaddr = 224.0.0.1|dport = None|totalpkts = 1|totalbytes = 60|state = INT
eventno = None|eventtype = IGMP_FLOW|origin = None|timestamp = 1238568129|timestampusec = 433970|protoflags = e       |protocol = igmp|sipaddr = 10.118.64.1|sport = None|dir = ->|dipaddr = 224.0.0.1|dport = None|totalpkts = 1|totalbytes = 60|state = INT
eventno = None|eventtype = IGMP_FLOW|origin = None|timestamp = 1238568130|timestampusec = 589695|protoflags = e       |protocol = igmp|sipaddr = 192.168.1.102|sport = None|dir = ->|dipaddr = 224.0.0.251|dport = None|totalpkts = 1|totalbytes = 60|state = INT
eventno = None|eventtype = ARP_FLOW|origin = None|timestamp = 1238568130|timestampusec = 893346|protoflags = e       |protocol = arp|sipaddr = 192.168.1.101|sport = None|dir = who|dipaddr = 192.168.1.76|dport = None|totalpkts = 1|totalbytes = 42|state = INT
eventno = None|eventtype = IGMP_FLOW|origin = None|timestamp = 1238568131|timestampusec = 252463|protoflags = e       |protocol = igmp|sipaddr = 192.168.1.101|sport = None|dir = ->|dipaddr = 239.255.255.250|dport = None|totalpkts = 1|totalbytes = 46|state = INT
eventno = None|eventtype = IGMP_FLOW|origin = None|timestamp = 1238568134|timestampusec = 622747|protoflags = e       |protocol = igmp|sipaddr = 192.168.1.102|sport = None|dir = ->|dipaddr = 239.255.255.250|dport = None|totalpkts = 1|totalbytes = 60|state = INT
eventno = None|eventtype = ARP_FLOW|origin = None|timestamp = 1238568135|timestampusec = 96432|protoflags = e       |protocol = arp|sipaddr = 192.168.1.101|sport = None|dir = who|dipaddr = 192.168.1.77|dport = None|totalpkts = 2|totalbytes = 84|state = INT
eventno = None|eventtype = IGMP_FLOW|origin = None|timestamp = 1238568135|timestampusec = 489339|protoflags = e       |protocol = igmp|sipaddr = 192.168.1.102|sport = None|dir = ->|dipaddr = 224.0.1.60|dport = None|totalpkts = 1|totalbytes = 60|state = INT
eventno = None|eventtype = ARP_FLOW|origin = None|timestamp = 1238568139|timestampusec = 299478|protoflags = e       |protocol = arp|sipaddr = 192.168.1.101|sport = None|dir = who|dipaddr = 192.168.1.78|dport = None|totalpkts = 1|totalbytes = 42|state = INT
eventno = None|eventtype = ARP_FLOW|origin = None|timestamp = 1238568143|timestampusec = 502567|protoflags = e       |protocol = arp|sipaddr = 192.168.1.101|sport = None|dir = who|dipaddr = 192.168.1.79|dport = None|totalpkts = 1|totalbytes = 42|state = INT
eventno = None|eventtype = ARP_FLOW|origin = None|timestamp = 1238568147|timestampusec = 705615|protoflags = e       |protocol = arp|sipaddr = 192.168.1.101|sport = None|dir = who|dipaddr = 192.168.1.80|dport = None|totalpkts = 2|totalbytes = 84|state = INT
eventno = None|eventtype = ARP_FLOW|origin = None|timestamp = 1238568151|timestampusec = 908693|protoflags = e       |protocol = arp|sipaddr = 192.168.1.101|sport = None|dir = who|dipaddr = 192.168.1.81|dport = None|totalpkts = 1|totalbytes = 42|state = INT
eventno = None|eventtype = ARP_FLOW|origin = None|timestamp = 1238568156|timestampusec = 111729|protoflags = e       |protocol = arp|sipaddr = 192.168.1.101|sport = None|dir = who|dipaddr = 192.168.1.82|dport = None|totalpkts = 2|totalbytes = 84|state = INT
eventno = None|eventtype = ARP_FLOW|origin = None|timestamp = 1238568160|timestampusec = 314839|protoflags = e       |protocol = arp|sipaddr = 192.168.1.101|sport = None|dir = who|dipaddr = 192.168.1.83|dport = None|totalpkts = 1|totalbytes = 42|state = INT
eventno = None|eventtype = ARP_FLOW|origin = None|timestamp = 1238568164|timestampusec = 517883|protoflags = e       |protocol = arp|sipaddr = 192.168.1.101|sport = None|dir = who|dipaddr = 192.168.1.84|dport = None|totalpkts = 2|totalbytes = 84|state = INT
eventno = None|eventtype = ARP_FLOW|origin = None|timestamp = 1238568168|timestampusec = 720938|protoflags = e       |protocol = arp|sipaddr = 192.168.1.101|sport = None|dir = who|dipaddr = 192.168.1.85|dport = None|totalpkts = 1|totalbytes = 42|state = INT
eventno = None|eventtype = ARP_FLOW|origin = None|timestamp = 1238568172|timestampusec = 923996|protoflags = e       |protocol = arp|sipaddr = 192.168.1.101|sport = None|dir = who|dipaddr = 192.168.1.86|dport = None|totalpkts = 1|totalbytes = 42|state = INT
eventno = None|eventtype = ARP_FLOW|origin = None|timestamp = 1238568175|timestampusec = 234957|protoflags = e       |protocol = arp|sipaddr = 192.168.1.1|sport = None|dir = who|dipaddr = 192.168.1.100|dport = None|totalpkts = 5|totalbytes = 300|state = INT
eventno = None|eventtype = ARP_FLOW|origin = None|timestamp = 1238568177|timestampusec = 127071|protoflags = e       |protocol = arp|sipaddr = 192.168.1.101|sport = None|dir = who|dipaddr = 192.168.1.87|dport = None|totalpkts = 2|totalbytes = 84|state = INT
eventno = None|eventtype = ARP_FLOW|origin = None|timestamp = 1238568180|timestampusec = 934932|protoflags = e       |protocol = arp|sipaddr = 192.168.1.1|sport = None|dir = who|dipaddr = 192.168.1.100|dport = None|totalpkts = 5|totalbytes = 300|state = INT
eventno = None|eventtype = ARP_FLOW|origin = None|timestamp = 1238568181|timestampusec = 330152|protoflags = e       |protocol = arp|sipaddr = 192.168.1.101|sport = None|dir = who|dipaddr = 192.168.1.88|dport = None|totalpkts = 1|totalbytes = 42|state = INT
eventno = None|eventtype = ARP_FLOW|origin = None|timestamp = 1238568185|timestampusec = 533202|protoflags = e       |protocol = arp|sipaddr = 192.168.1.101|sport = None|dir = who|dipaddr = 192.168.1.89|dport = None|totalpkts = 1|totalbytes = 42|state = INT
eventno = None|eventtype = UDP_FLOW|origin = None|timestamp = 1238568189|timestampusec = 173584|protoflags = e       |protocol = udp|sipaddr = 192.168.1.101|sport = netbio|dir = ->|dipaddr = 192.168.1.255|dport = netbio|totalpkts = 1|totalbytes = 243|state = INT
eventno = None|eventtype = IGMP_FLOW|origin = None|timestamp = 1238568189|timestampusec = 557657|protoflags = e       |protocol = igmp|sipaddr = 10.118.64.1|sport = None|dir = ->|dipaddr = 224.0.0.1|dport = None|totalpkts = 1|totalbytes = 60|state = INT
eventno = None|eventtype = ARP_FLOW|origin = None|timestamp = 1238568189|timestampusec = 736271|protoflags = e       |protocol = arp|sipaddr = 192.168.1.101|sport = None|dir = who|dipaddr = 192.168.1.90|dport = None|totalpkts = 1|totalbytes = 42|state = INT
eventno = None|eventtype = IGMP_FLOW|origin = None|timestamp = 1238568190|timestampusec = 570962|protoflags = e       |protocol = igmp|sipaddr = 192.168.1.102|sport = None|dir = ->|dipaddr = 224.0.0.251|dport = None|totalpkts = 1|totalbytes = 60|state = INT
eventno = None|eventtype = IGMP_FLOW|origin = None|timestamp = 1238568191|timestampusec = 520638|protoflags = e       |protocol = igmp|sipaddr = 192.168.1.102|sport = None|dir = ->|dipaddr = 239.255.255.250|dport = None|totalpkts = 1|totalbytes = 60|state = INT
eventno = None|eventtype = ARP_FLOW|origin = None|timestamp = 1238568193|timestampusec = 939375|protoflags = e       |protocol = arp|sipaddr = 192.168.1.101|sport = None|dir = who|dipaddr = 192.168.1.91|dport = None|totalpkts = 1|totalbytes = 42|state = INT
eventno = None|eventtype = IGMP_FLOW|origin = None|timestamp = 1238568196|timestampusec = 120615|protoflags = e       |protocol = igmp|sipaddr = 192.168.1.102|sport = None|dir = ->|dipaddr = 224.0.1.60|dport = None|totalpkts = 1|totalbytes = 60|state = INT
eventno = None|eventtype = ARP_FLOW|origin = None|timestamp = 1238568198|timestampusec = 142408|protoflags = e       |protocol = arp|sipaddr = 192.168.1.101|sport = None|dir = who|dipaddr = 192.168.1.92|dport = None|totalpkts = 2|totalbytes = 84|state = INT
eventno = None|eventtype = ARP_FLOW|origin = None|timestamp = 1238568202|timestampusec = 345472|protoflags = e       |protocol = arp|sipaddr = 192.168.1.101|sport = None|dir = who|dipaddr = 192.168.1.93|dport = None|totalpkts = 1|totalbytes = 42|state = INT
eventno = None|eventtype = ARP_FLOW|origin = None|timestamp = 1238568206|timestampusec = 548542|protoflags = e       |protocol = arp|sipaddr = 192.168.1.101|sport = None|dir = who|dipaddr = 192.168.1.94|dport = None|totalpkts = 2|totalbytes = 84|state = INT
eventno = None|eventtype = ARP_FLOW|origin = None|timestamp = 1238568210|timestampusec = 751637|protoflags = e       |protocol = arp|sipaddr = 192.168.1.101|sport = None|dir = who|dipaddr = 192.168.1.95|dport = None|totalpkts = 1|totalbytes = 42|state = INT
eventno = None|eventtype = ARP_FLOW|origin = None|timestamp = 1238568214|timestampusec = 954672|protoflags = e       |protocol = arp|sipaddr = 192.168.1.101|sport = None|dir = who|dipaddr = 192.168.1.96|dport = None|totalpkts = 1|totalbytes = 42|state = INT
eventno = None|eventtype = ARP_FLOW|origin = None|timestamp = 1238568219|timestampusec = 158763|protoflags = e       |protocol = arp|sipaddr = 192.168.1.101|sport = None|dir = who|dipaddr = 192.168.1.97|dport = None|totalpkts = 1|totalbytes = 42|state = INT
eventno = None|eventtype = ARP_FLOW|origin = None|timestamp = 1238568223|timestampusec = 360813|protoflags = e       |protocol = arp|sipaddr = 192.168.1.101|sport = None|dir = who|dipaddr = 192.168.1.98|dport = None|totalpkts = 1|totalbytes = 42|state = INT
eventno = None|eventtype = ARP_FLOW|origin = None|timestamp = 1238568227|timestampusec = 563878|protoflags = e       |protocol = arp|sipaddr = 192.168.1.101|sport = None|dir = who|dipaddr = 192.168.1.99|dport = None|totalpkts = 1|totalbytes = 42|state = INT
eventno = None|eventtype = ARP_FLOW|origin = None|timestamp = 1238568227|timestampusec = 706269|protoflags = e       |protocol = arp|sipaddr = 192.168.1.1|sport = None|dir = who|dipaddr = 192.168.1.100|dport = None|totalpkts = 5|totalbytes = 300|state = INT
eventno = None|eventtype = ARP_FLOW|origin = None|timestamp = 1238568231|timestampusec = 767112|protoflags = e       |protocol = arp|sipaddr = 192.168.1.101|sport = None|dir = who|dipaddr = 192.168.1.100|dport = None|totalpkts = 2|totalbytes = 84|state = INT
eventno = None|eventtype = ARP_FLOW|origin = None|timestamp = 1238568233|timestampusec = 581902|protoflags = e       |protocol = arp|sipaddr = 192.168.1.1|sport = None|dir = who|dipaddr = 192.168.1.100|dport = None|totalpkts = 5|totalbytes = 300|state = INT
eventno = None|eventtype = ARP_FLOW|origin = None|timestamp = 1238568235|timestampusec = 970065|protoflags = e       |protocol = arp|sipaddr = 192.168.1.101|sport = None|dir = who|dipaddr = 192.168.1.102|dport = None|totalpkts = 2|totalbytes = 102|state = CON
eventno = None|eventtype = TCP_FLOW|origin = None|timestamp = 1238568235|timestampusec = 972998|protoflags = e s     |protocol = tcp|sipaddr = 192.168.1.101|sport = 1140|dir = ->|dipaddr = 192.168.1.102|dport = micros|totalpkts = 6|totalbytes = 366|state = RST
eventno = None|eventtype = ARP_FLOW|origin = None|timestamp = 1238568237|timestampusec = 126249|protoflags = e       |protocol = arp|sipaddr = 192.168.1.101|sport = None|dir = who|dipaddr = 192.168.1.103|dport = None|totalpkts = 1|totalbytes = 42|state = INT
eventno = None|eventtype = ARP_FLOW|origin = None|timestamp = 1238568241|timestampusec = 329313|protoflags = e       |protocol = arp|sipaddr = 192.168.1.101|sport = None|dir = who|dipaddr = 192.168.1.104|dport = None|totalpkts = 2|totalbytes = 84|state = INT
eventno = None|eventtype = ARP_FLOW|origin = None|timestamp = 1238568245|timestampusec = 532397|protoflags = e       |protocol = arp|sipaddr = 192.168.1.101|sport = None|dir = who|dipaddr = 192.168.1.105|dport = None|totalpkts = 1|totalbytes = 42|state = INT
eventno = None|eventtype = IGMP_FLOW|origin = None|timestamp = 1238568249|timestampusec = 564825|protoflags = e       |protocol = igmp|sipaddr = 10.118.64.1|sport = None|dir = ->|dipaddr = 224.0.0.1|dport = None|totalpkts = 1|totalbytes = 60|state = INT
eventno = None|eventtype = IGMP_FLOW|origin = None|timestamp = 1238568249|timestampusec = 586453|protoflags = e       |protocol = igmp|sipaddr = 192.168.1.102|sport = None|dir = ->|dipaddr = 239.255.255.250|dport = None|totalpkts = 1|totalbytes = 60|state = INT
eventno = None|eventtype = ARP_FLOW|origin = None|timestamp = 1238568249|timestampusec = 735458|protoflags = e       |protocol = arp|sipaddr = 192.168.1.101|sport = None|dir = who|dipaddr = 192.168.1.106|dport = None|totalpkts = 1|totalbytes = 42|state = INT
eventno = None|eventtype = IGMP_FLOW|origin = None|timestamp = 1238568252|timestampusec = 268656|protoflags = e       |protocol = igmp|sipaddr = 192.168.1.102|sport = None|dir = ->|dipaddr = 224.0.1.60|dport = None|totalpkts = 1|totalbytes = 60|state = INT
eventno = None|eventtype = ARP_FLOW|origin = None|timestamp = 1238568253|timestampusec = 938525|protoflags = e       |protocol = arp|sipaddr = 192.168.1.101|sport = None|dir = who|dipaddr = 192.168.1.107|dport = None|totalpkts = 1|totalbytes = 42|state = INT
eventno = None|eventtype = IGMP_FLOW|origin = None|timestamp = 1238568255|timestampusec = 335202|protoflags = e       |protocol = igmp|sipaddr = 192.168.1.102|sport = None|dir = ->|dipaddr = 224.0.0.251|dport = None|totalpkts = 1|totalbytes = 60|state = INT
eventno = None|eventtype = ARP_FLOW|origin = None|timestamp = 1238568258|timestampusec = 141630|protoflags = e       |protocol = arp|sipaddr = 192.168.1.101|sport = None|dir = who|dipaddr = 192.168.1.108|dport = None|totalpkts = 1|totalbytes = 42|state = INT
eventno = None|eventtype = ARP_FLOW|origin = None|timestamp = 1238568262|timestampusec = 344664|protoflags = e       |protocol = arp|sipaddr = 192.168.1.101|sport = None|dir = who|dipaddr = 192.168.1.109|dport = None|totalpkts = 1|totalbytes = 42|state = INT
eventno = None|eventtype = ARP_FLOW|origin = None|timestamp = 1238568266|timestampusec = 547778|protoflags = e       |protocol = arp|sipaddr = 192.168.1.101|sport = None|dir = who|dipaddr = 192.168.1.110|dport = None|totalpkts = 1|totalbytes = 42|state = INT
eventno = None|eventtype = ARP_FLOW|origin = None|timestamp = 1238568270|timestampusec = 750822|protoflags = e       |protocol = arp|sipaddr = 192.168.1.101|sport = None|dir = who|dipaddr = 192.168.1.111|dport = None|totalpkts = 2|totalbytes = 84|state = INT
eventno = None|eventtype = ARP_FLOW|origin = None|timestamp = 1238568274|timestampusec = 953894|protoflags = e       |protocol = arp|sipaddr = 192.168.1.101|sport = None|dir = who|dipaddr = 192.168.1.112|dport = None|totalpkts = 1|totalbytes = 42|state = INT
eventno = None|eventtype = ARP_FLOW|origin = None|timestamp = 1238568279|timestampusec = 156923|protoflags = e       |protocol = arp|sipaddr = 192.168.1.101|sport = None|dir = who|dipaddr = 192.168.1.113|dport = None|totalpkts = 1|totalbytes = 42|state = INT
eventno = None|eventtype = ARP_FLOW|origin = None|timestamp = 1238568283|timestampusec = 359993|protoflags = e       |protocol = arp|sipaddr = 192.168.1.101|sport = None|dir = who|dipaddr = 192.168.1.114|dport = None|totalpkts = 1|totalbytes = 42|state = INT
eventno = None|eventtype = ARP_FLOW|origin = None|timestamp = 1238568287|timestampusec = 563078|protoflags = e       |protocol = arp|sipaddr = 192.168.1.101|sport = None|dir = who|dipaddr = 192.168.1.115|dport = None|totalpkts = 1|totalbytes = 42|state = INT
eventno = None|eventtype = ARP_FLOW|origin = None|timestamp = 1238568291|timestampusec = 766137|protoflags = e       |protocol = arp|sipaddr = 192.168.1.101|sport = None|dir = who|dipaddr = 192.168.1.116|dport = None|totalpkts = 1|totalbytes = 42|state = INT
eventno = None|eventtype = ARP_FLOW|origin = None|timestamp = 1238568295|timestampusec = 969200|protoflags = e       |protocol = arp|sipaddr = 192.168.1.101|sport = None|dir = who|dipaddr = 192.168.1.117|dport = None|totalpkts = 2|totalbytes = 84|state = INT
eventno = None|eventtype = ARP_FLOW|origin = None|timestamp = 1238568300|timestampusec = 172277|protoflags = e       |protocol = arp|sipaddr = 192.168.1.101|sport = None|dir = who|dipaddr = 192.168.1.118|dport = None|totalpkts = 1|totalbytes = 42|state = INT
eventno = None|eventtype = ARP_FLOW|origin = None|timestamp = 1238568304|timestampusec = 375336|protoflags = e       |protocol = arp|sipaddr = 192.168.1.101|sport = None|dir = who|dipaddr = 192.168.1.119|dport = None|totalpkts = 1|totalbytes = 42|state = INT
eventno = None|eventtype = ARP_FLOW|origin = None|timestamp = 1238568308|timestampusec = 578410|protoflags = e       |protocol = arp|sipaddr = 192.168.1.101|sport = None|dir = who|dipaddr = 192.168.1.120|dport = None|totalpkts = 1|totalbytes = 42|state = INT
eventno = None|eventtype = IGMP_FLOW|origin = None|timestamp = 1238568309|timestampusec = 533238|protoflags = e       |protocol = igmp|sipaddr = 192.168.1.1|sport = None|dir = ->|dipaddr = 224.0.0.1|dport = None|totalpkts = 1|totalbytes = 60|state = INT
eventno = None|eventtype = IGMP_FLOW|origin = None|timestamp = 1238568309|timestampusec = 567609|protoflags = e       |protocol = igmp|sipaddr = 10.118.64.1|sport = None|dir = ->|dipaddr = 224.0.0.1|dport = None|totalpkts = 1|totalbytes = 60|state = INT
eventno = None|eventtype = IGMP_FLOW|origin = None|timestamp = 1238568311|timestampusec = 199921|protoflags = e       |protocol = igmp|sipaddr = 192.168.1.102|sport = None|dir = ->|dipaddr = 239.255.255.250|dport = None|totalpkts = 1|totalbytes = 60|state = INT
eventno = None|eventtype = ARP_FLOW|origin = None|timestamp = 1238568312|timestampusec = 781497|protoflags = e       |protocol = arp|sipaddr = 192.168.1.101|sport = None|dir = who|dipaddr = 192.168.1.121|dport = None|totalpkts = 1|totalbytes = 42|state = INT
eventno = None|eventtype = IGMP_FLOW|origin = None|timestamp = 1238568312|timestampusec = 933318|protoflags = e       |protocol = igmp|sipaddr = 192.168.1.102|sport = None|dir = ->|dipaddr = 224.0.1.60|dport = None|totalpkts = 1|totalbytes = 60|state = INT
eventno = None|eventtype = ARP_FLOW|origin = None|timestamp = 1238568316|timestampusec = 984543|protoflags = e       |protocol = arp|sipaddr = 192.168.1.101|sport = None|dir = who|dipaddr = 192.168.1.122|dport = None|totalpkts = 2|totalbytes = 84|state = INT
eventno = None|eventtype = IGMP_FLOW|origin = None|timestamp = 1238568318|timestampusec = 116293|protoflags = e       |protocol = igmp|sipaddr = 192.168.1.102|sport = None|dir = ->|dipaddr = 224.0.0.251|dport = None|totalpkts = 1|totalbytes = 60|state = INT
eventno = None|eventtype = ARP_FLOW|origin = None|timestamp = 1238568321|timestampusec = 187641|protoflags = e       |protocol = arp|sipaddr = 192.168.1.101|sport = None|dir = who|dipaddr = 192.168.1.123|dport = None|totalpkts = 1|totalbytes = 42|state = INT
eventno = None|eventtype = ARP_FLOW|origin = None|timestamp = 1238568325|timestampusec = 390670|protoflags = e       |protocol = arp|sipaddr = 192.168.1.101|sport = None|dir = who|dipaddr = 192.168.1.124|dport = None|totalpkts = 2|totalbytes = 84|state = INT
eventno = None|eventtype = ARP_FLOW|origin = None|timestamp = 1238568329|timestampusec = 593746|protoflags = e       |protocol = arp|sipaddr = 192.168.1.101|sport = None|dir = who|dipaddr = 192.168.1.125|dport = None|totalpkts = 1|totalbytes = 42|state = INT
eventno = None|eventtype = ARP_FLOW|origin = None|timestamp = 1238568333|timestampusec = 796811|protoflags = e       |protocol = arp|sipaddr = 192.168.1.101|sport = None|dir = who|dipaddr = 192.168.1.126|dport = None|totalpkts = 1|totalbytes = 42|state = INT
eventno = None|eventtype = ARP_FLOW|origin = None|timestamp = 1238568337|timestampusec = 999884|protoflags = e       |protocol = arp|sipaddr = 192.168.1.101|sport = None|dir = who|dipaddr = 192.168.1.127|dport = None|totalpkts = 2|totalbytes = 84|state = INT
eventno = None|eventtype = ARP_FLOW|origin = None|timestamp = 1238568342|timestampusec = 202983|protoflags = e       |protocol = arp|sipaddr = 192.168.1.101|sport = None|dir = who|dipaddr = 192.168.1.128|dport = None|totalpkts = 1|totalbytes = 42|state = INT
eventno = None|eventtype = ARP_FLOW|origin = None|timestamp = 1238568346|timestampusec = 406029|protoflags = e       |protocol = arp|sipaddr = 192.168.1.101|sport = None|dir = who|dipaddr = 192.168.1.129|dport = None|totalpkts = 2|totalbytes = 84|state = INT
eventno = None|eventtype = ARP_FLOW|origin = None|timestamp = 1238568350|timestampusec = 609091|protoflags = e       |protocol = arp|sipaddr = 192.168.1.101|sport = None|dir = who|dipaddr = 192.168.1.130|dport = None|totalpkts = 1|totalbytes = 42|state = INT
eventno = None|eventtype = ARP_FLOW|origin = None|timestamp = 1238568352|timestampusec = 961191|protoflags = e       |protocol = arp|sipaddr = 192.168.1.1|sport = None|dir = who|dipaddr = 192.168.1.100|dport = None|totalpkts = 5|totalbytes = 300|state = INT
eventno = None|eventtype = ARP_FLOW|origin = None|timestamp = 1238568354|timestampusec = 812188|protoflags = e       |protocol = arp|sipaddr = 192.168.1.101|sport = None|dir = who|dipaddr = 192.168.1.131|dport = None|totalpkts = 1|totalbytes = 42|state = INT
eventno = None|eventtype = ARP_FLOW|origin = None|timestamp = 1238568358|timestampusec = 130974|protoflags = e       |protocol = arp|sipaddr = 192.168.1.1|sport = None|dir = who|dipaddr = 192.168.1.100|dport = None|totalpkts = 5|totalbytes = 300|state = INT
eventno = None|eventtype = ARP_FLOW|origin = None|timestamp = 1238568359|timestampusec = 15226|protoflags = e       |protocol = arp|sipaddr = 192.168.1.101|sport = None|dir = who|dipaddr = 192.168.1.132|dport = None|totalpkts = 2|totalbytes = 84|state = INT
eventno = None|eventtype = ARP_FLOW|origin = None|timestamp = 1238568363|timestampusec = 218322|protoflags = e       |protocol = arp|sipaddr = 192.168.1.101|sport = None|dir = who|dipaddr = 192.168.1.133|dport = None|totalpkts = 1|totalbytes = 42|state = INT
eventno = None|eventtype = ARP_FLOW|origin = None|timestamp = 1238568367|timestampusec = 421387|protoflags = e       |protocol = arp|sipaddr = 192.168.1.101|sport = None|dir = who|dipaddr = 192.168.1.134|dport = None|totalpkts = 2|totalbytes = 84|state = INT
eventno = None|eventtype = IGMP_FLOW|origin = None|timestamp = 1238568369|timestampusec = 626634|protoflags = e       |protocol = igmp|sipaddr = 10.118.64.1|sport = None|dir = ->|dipaddr = 224.0.0.1|dport = None|totalpkts = 1|totalbytes = 60|state = INT
eventno = None|eventtype = IGMP_FLOW|origin = None|timestamp = 1238568371|timestampusec = 249181|protoflags = e       |protocol = igmp|sipaddr = 192.168.1.101|sport = None|dir = ->|dipaddr = 239.255.255.250|dport = None|totalpkts = 1|totalbytes = 46|state = INT
eventno = None|eventtype = ARP_FLOW|origin = None|timestamp = 1238568371|timestampusec = 624443|protoflags = e       |protocol = arp|sipaddr = 192.168.1.101|sport = None|dir = who|dipaddr = 192.168.1.135|dport = None|totalpkts = 1|totalbytes = 42|state = INT
eventno = None|eventtype = IGMP_FLOW|origin = None|timestamp = 1238568373|timestampusec = 731183|protoflags = e       |protocol = igmp|sipaddr = 192.168.1.102|sport = None|dir = ->|dipaddr = 224.0.0.251|dport = None|totalpkts = 1|totalbytes = 60|state = INT
eventno = None|eventtype = ARP_FLOW|origin = None|timestamp = 1238568375|timestampusec = 827495|protoflags = e       |protocol = arp|sipaddr = 192.168.1.101|sport = None|dir = who|dipaddr = 192.168.1.136|dport = None|totalpkts = 1|totalbytes = 42|state = INT
eventno = None|eventtype = IGMP_FLOW|origin = None|timestamp = 1238568376|timestampusec = 47726|protoflags = e       |protocol = igmp|sipaddr = 192.168.1.102|sport = None|dir = ->|dipaddr = 239.255.255.250|dport = None|totalpkts = 1|totalbytes = 60|state = INT
eventno = None|eventtype = IGMP_FLOW|origin = None|timestamp = 1238568377|timestampusec = 31042|protoflags = e       |protocol = igmp|sipaddr = 192.168.1.102|sport = None|dir = ->|dipaddr = 224.0.1.60|dport = None|totalpkts = 1|totalbytes = 60|state = INT
eventno = None|eventtype = ARP_FLOW|origin = None|timestamp = 1238568380|timestampusec = 30558|protoflags = e       |protocol = arp|sipaddr = 192.168.1.101|sport = None|dir = who|dipaddr = 192.168.1.137|dport = None|totalpkts = 1|totalbytes = 42|state = INT
eventno = None|eventtype = ARP_FLOW|origin = None|timestamp = 1238568384|timestampusec = 233656|protoflags = e       |protocol = arp|sipaddr = 192.168.1.101|sport = None|dir = who|dipaddr = 192.168.1.138|dport = None|totalpkts = 1|totalbytes = 42|state = INT
eventno = None|eventtype = ARP_FLOW|origin = None|timestamp = 1238568388|timestampusec = 436705|protoflags = e       |protocol = arp|sipaddr = 192.168.1.101|sport = None|dir = who|dipaddr = 192.168.1.139|dport = None|totalpkts = 2|totalbytes = 84|state = INT
eventno = None|eventtype = ARP_FLOW|origin = None|timestamp = 1238568392|timestampusec = 639795|protoflags = e       |protocol = arp|sipaddr = 192.168.1.101|sport = None|dir = who|dipaddr = 192.168.1.140|dport = None|totalpkts = 1|totalbytes = 42|state = INT
eventno = None|eventtype = ARP_FLOW|origin = None|timestamp = 1238568396|timestampusec = 842833|protoflags = e       |protocol = arp|sipaddr = 192.168.1.101|sport = None|dir = who|dipaddr = 192.168.1.141|dport = None|totalpkts = 1|totalbytes = 42|state = INT
eventno = None|eventtype = ARP_FLOW|origin = None|timestamp = 1238568401|timestampusec = 45900|protoflags = e       |protocol = arp|sipaddr = 192.168.1.101|sport = None|dir = who|dipaddr = 192.168.1.142|dport = None|totalpkts = 1|totalbytes = 42|state = INT
eventno = None|eventtype = ARP_FLOW|origin = None|timestamp = 1238568405|timestampusec = 248993|protoflags = e       |protocol = arp|sipaddr = 192.168.1.101|sport = None|dir = who|dipaddr = 192.168.1.143|dport = None|totalpkts = 1|totalbytes = 42|state = INT
eventno = None|eventtype = ARP_FLOW|origin = None|timestamp = 1238568409|timestampusec = 452051|protoflags = e       |protocol = arp|sipaddr = 192.168.1.101|sport = None|dir = who|dipaddr = 192.168.1.144|dport = None|totalpkts = 1|totalbytes = 42|state = INT
eventno = None|eventtype = ARP_FLOW|origin = None|timestamp = 1238568413|timestampusec = 655119|protoflags = e       |protocol = arp|sipaddr = 192.168.1.101|sport = None|dir = who|dipaddr = 192.168.1.145|dport = None|totalpkts = 2|totalbytes = 84|state = INT
eventno = None|eventtype = ARP_FLOW|origin = None|timestamp = 1238568417|timestampusec = 858185|protoflags = e       |protocol = arp|sipaddr = 192.168.1.101|sport = None|dir = who|dipaddr = 192.168.1.146|dport = None|totalpkts = 1|totalbytes = 42|state = INT
eventno = None|eventtype = ARP_FLOW|origin = None|timestamp = 1238568422|timestampusec = 62260|protoflags = e       |protocol = arp|sipaddr = 192.168.1.101|sport = None|dir = who|dipaddr = 192.168.1.147|dport = None|totalpkts = 1|totalbytes = 42|state = INT
eventno = None|eventtype = ARP_FLOW|origin = None|timestamp = 1238568426|timestampusec = 264303|protoflags = e       |protocol = arp|sipaddr = 192.168.1.101|sport = None|dir = who|dipaddr = 192.168.1.148|dport = None|totalpkts = 1|totalbytes = 42|state = INT
eventno = None|eventtype = IGMP_FLOW|origin = None|timestamp = 1238568429|timestampusec = 689264|protoflags = e       |protocol = igmp|sipaddr = 10.118.64.1|sport = None|dir = ->|dipaddr = 224.0.0.1|dport = None|totalpkts = 1|totalbytes = 60|state = INT
eventno = None|eventtype = ARP_FLOW|origin = None|timestamp = 1238568430|timestampusec = 467376|protoflags = e       |protocol = arp|sipaddr = 192.168.1.101|sport = None|dir = who|dipaddr = 192.168.1.149|dport = None|totalpkts = 1|totalbytes = 42|state = INT
eventno = None|eventtype = IGMP_FLOW|origin = None|timestamp = 1238568431|timestampusec = 313057|protoflags = e       |protocol = igmp|sipaddr = 192.168.1.102|sport = None|dir = ->|dipaddr = 239.255.255.250|dport = None|totalpkts = 1|totalbytes = 60|state = INT
eventno = None|eventtype = ARP_FLOW|origin = None|timestamp = 1238568434|timestampusec = 670467|protoflags = e       |protocol = arp|sipaddr = 192.168.1.101|sport = None|dir = who|dipaddr = 192.168.1.150|dport = None|totalpkts = 2|totalbytes = 84|state = INT
eventno = None|eventtype = IGMP_FLOW|origin = None|timestamp = 1238568435|timestampusec = 662341|protoflags = e       |protocol = igmp|sipaddr = 192.168.1.102|sport = None|dir = ->|dipaddr = 224.0.1.60|dport = None|totalpkts = 1|totalbytes = 60|state = INT
eventno = None|eventtype = ARP_FLOW|origin = None|timestamp = 1238568438|timestampusec = 873560|protoflags = e       |protocol = arp|sipaddr = 192.168.1.101|sport = None|dir = who|dipaddr = 192.168.1.151|dport = None|totalpkts = 1|totalbytes = 42|state = INT
eventno = None|eventtype = IGMP_FLOW|origin = None|timestamp = 1238568439|timestampusec = 112253|protoflags = e       |protocol = igmp|sipaddr = 192.168.1.102|sport = None|dir = ->|dipaddr = 224.0.0.251|dport = None|totalpkts = 1|totalbytes = 60|state = INT
eventno = None|eventtype = ARP_FLOW|origin = None|timestamp = 1238568443|timestampusec = 76592|protoflags = e       |protocol = arp|sipaddr = 192.168.1.101|sport = None|dir = who|dipaddr = 192.168.1.152|dport = None|totalpkts = 2|totalbytes = 84|state = INT
eventno = None|eventtype = UDP_FLOW|origin = None|timestamp = 1238568443|timestampusec = 186577|protoflags = e       |protocol = udp|sipaddr = 192.168.1.1|sport = 3150|dir = ->|dipaddr = 192.168.1.101|dport = netbio|totalpkts = 1|totalbytes = 92|state = INT
eventno = None|eventtype = ARP_FLOW|origin = None|timestamp = 1238568447|timestampusec = 279651|protoflags = e       |protocol = arp|sipaddr = 192.168.1.101|sport = None|dir = who|dipaddr = 192.168.1.153|dport = None|totalpkts = 1|totalbytes = 42|state = INT
eventno = None|eventtype = ARP_FLOW|origin = None|timestamp = 1238568451|timestampusec = 482774|protoflags = e       |protocol = arp|sipaddr = 192.168.1.101|sport = None|dir = who|dipaddr = 192.168.1.154|dport = None|totalpkts = 1|totalbytes = 42|state = INT
eventno = None|eventtype = ARP_FLOW|origin = None|timestamp = 1238568455|timestampusec = 685799|protoflags = e       |protocol = arp|sipaddr = 192.168.1.101|sport = None|dir = who|dipaddr = 192.168.1.155|dport = None|totalpkts = 2|totalbytes = 84|state = INT
eventno = None|eventtype = ARP_FLOW|origin = None|timestamp = 1238568459|timestampusec = 888903|protoflags = e       |protocol = arp|sipaddr = 192.168.1.101|sport = None|dir = who|dipaddr = 192.168.1.156|dport = None|totalpkts = 1|totalbytes = 42|state = INT
eventno = None|eventtype = ARP_FLOW|origin = None|timestamp = 1238568464|timestampusec = 91949|protoflags = e       |protocol = arp|sipaddr = 192.168.1.101|sport = None|dir = who|dipaddr = 192.168.1.157|dport = None|totalpkts = 2|totalbytes = 84|state = INT
eventno = None|eventtype = UDP_FLOW|origin = None|timestamp = 1238568465|timestampusec = 128612|protoflags = e       |protocol = udp|sipaddr = 192.168.1.1|sport = 3150|dir = ->|dipaddr = 192.168.1.101|dport = netbio|totalpkts = 1|totalbytes = 92|state = INT
eventno = None|eventtype = ARP_FLOW|origin = None|timestamp = 1238568468|timestampusec = 295020|protoflags = e       |protocol = arp|sipaddr = 192.168.1.101|sport = None|dir = who|dipaddr = 192.168.1.158|dport = None|totalpkts = 1|totalbytes = 42|state = INT
eventno = None|eventtype = UDP_FLOW|origin = None|timestamp = 1238568468|timestampusec = 500525|protoflags = e       |protocol = udp|sipaddr = 192.168.1.1|sport = 3151|dir = ->|dipaddr = 192.168.1.101|dport = netbio|totalpkts = 1|totalbytes = 92|state = INT
eventno = None|eventtype = ARP_FLOW|origin = None|timestamp = 1238568472|timestampusec = 498078|protoflags = e       |protocol = arp|sipaddr = 192.168.1.101|sport = None|dir = who|dipaddr = 192.168.1.159|dport = None|totalpkts = 2|totalbytes = 84|state = INT
eventno = None|eventtype = ARP_FLOW|origin = None|timestamp = 1238568476|timestampusec = 701172|protoflags = e       |protocol = arp|sipaddr = 192.168.1.101|sport = None|dir = who|dipaddr = 192.168.1.160|dport = None|totalpkts = 2|totalbytes = 84|state = INT
eventno = None|eventtype = ARP_FLOW|origin = None|timestamp = 1238568480|timestampusec = 904220|protoflags = e       |protocol = arp|sipaddr = 192.168.1.101|sport = None|dir = who|dipaddr = 192.168.1.161|dport = None|totalpkts = 1|totalbytes = 42|state = INT
eventno = None|eventtype = ARP_FLOW|origin = None|timestamp = 1238568485|timestampusec = 107272|protoflags = e       |protocol = arp|sipaddr = 192.168.1.101|sport = None|dir = who|dipaddr = 192.168.1.162|dport = None|totalpkts = 2|totalbytes = 84|state = INT
eventno = None|eventtype = UDP_FLOW|origin = None|timestamp = 1238568487|timestampusec = 430300|protoflags = e       |protocol = udp|sipaddr = 192.168.1.1|sport = 3151|dir = ->|dipaddr = 192.168.1.101|dport = netbio|totalpkts = 1|totalbytes = 92|state = INT
eventno = None|eventtype = UDP_FLOW|origin = None|timestamp = 1238568488|timestampusec = 409682|protoflags = e       |protocol = udp|sipaddr = 192.168.1.102|sport = 1900|dir = ->|dipaddr = 239.255.255.250|dport = 1900|totalpkts = 10|totalbytes = 3456|state = INT
eventno = None|eventtype = ARP_FLOW|origin = None|timestamp = 1238568489|timestampusec = 310351|protoflags = e       |protocol = arp|sipaddr = 192.168.1.101|sport = None|dir = who|dipaddr = 192.168.1.163|dport = None|totalpkts = 1|totalbytes = 42|state = INT
eventno = None|eventtype = IGMP_FLOW|origin = None|timestamp = 1238568489|timestampusec = 765031|protoflags = e       |protocol = igmp|sipaddr = 192.168.1.1|sport = None|dir = ->|dipaddr = 224.0.0.1|dport = None|totalpkts = 1|totalbytes = 60|state = INT
eventno = None|eventtype = IGMP_FLOW|origin = None|timestamp = 1238568489|timestampusec = 837990|protoflags = e       |protocol = igmp|sipaddr = 10.118.64.1|sport = None|dir = ->|dipaddr = 224.0.0.1|dport = None|totalpkts = 1|totalbytes = 60|state = INT
eventno = None|eventtype = IGMP_FLOW|origin = None|timestamp = 1238568492|timestampusec = 343962|protoflags = e       |protocol = igmp|sipaddr = 192.168.1.102|sport = None|dir = ->|dipaddr = 239.255.255.250|dport = None|totalpkts = 1|totalbytes = 60|state = INT
eventno = None|eventtype = IGMP_FLOW|origin = None|timestamp = 1238568493|timestampusec = 277062|protoflags = e       |protocol = igmp|sipaddr = 192.168.1.102|sport = None|dir = ->|dipaddr = 224.0.0.251|dport = None|totalpkts = 1|totalbytes = 60|state = INT
eventno = None|eventtype = ARP_FLOW|origin = None|timestamp = 1238568493|timestampusec = 513408|protoflags = e       |protocol = arp|sipaddr = 192.168.1.101|sport = None|dir = who|dipaddr = 192.168.1.164|dport = None|totalpkts = 2|totalbytes = 84|state = INT
eventno = None|eventtype = UDP_FLOW|origin = None|timestamp = 1238568493|timestampusec = 820292|protoflags = e       |protocol = udp|sipaddr = 192.168.1.1|sport = 3152|dir = ->|dipaddr = 192.168.1.101|dport = netbio|totalpkts = 1|totalbytes = 92|state = INT
eventno = None|eventtype = IGMP_FLOW|origin = None|timestamp = 1238568494|timestampusec = 910507|protoflags = e       |protocol = igmp|sipaddr = 192.168.1.102|sport = None|dir = ->|dipaddr = 224.0.1.60|dport = None|totalpkts = 1|totalbytes = 60|state = INT
eventno = None|eventtype = ARP_FLOW|origin = None|timestamp = 1238568497|timestampusec = 716488|protoflags = e       |protocol = arp|sipaddr = 192.168.1.101|sport = None|dir = who|dipaddr = 192.168.1.165|dport = None|totalpkts = 1|totalbytes = 42|state = INT
eventno = None|eventtype = ARP_FLOW|origin = None|timestamp = 1238568501|timestampusec = 919545|protoflags = e       |protocol = arp|sipaddr = 192.168.1.101|sport = None|dir = who|dipaddr = 192.168.1.166|dport = None|totalpkts = 1|totalbytes = 42|state = INT
eventno = None|eventtype = ARP_FLOW|origin = None|timestamp = 1238568506|timestampusec = 122605|protoflags = e       |protocol = arp|sipaddr = 192.168.1.101|sport = None|dir = who|dipaddr = 192.168.1.167|dport = None|totalpkts = 2|totalbytes = 84|state = INT
eventno = None|eventtype = UDP_FLOW|origin = None|timestamp = 1238568509|timestampusec = 662605|protoflags = e       |protocol = udp|sipaddr = 192.168.1.1|sport = 3152|dir = ->|dipaddr = 192.168.1.101|dport = netbio|totalpkts = 1|totalbytes = 92|state = INT
eventno = None|eventtype = ARP_FLOW|origin = None|timestamp = 1238568510|timestampusec = 325692|protoflags = e       |protocol = arp|sipaddr = 192.168.1.101|sport = None|dir = who|dipaddr = 192.168.1.168|dport = None|totalpkts = 1|totalbytes = 42|state = INT
eventno = None|eventtype = ARP_FLOW|origin = None|timestamp = 1238568514|timestampusec = 528754|protoflags = e       |protocol = arp|sipaddr = 192.168.1.101|sport = None|dir = who|dipaddr = 192.168.1.169|dport = None|totalpkts = 1|totalbytes = 42|state = INT
eventno = None|eventtype = ARP_FLOW|origin = None|timestamp = 1238568518|timestampusec = 731816|protoflags = e       |protocol = arp|sipaddr = 192.168.1.101|sport = None|dir = who|dipaddr = 192.168.1.170|dport = None|totalpkts = 1|totalbytes = 42|state = INT
eventno = None|eventtype = ARP_FLOW|origin = None|timestamp = 1238568520|timestampusec = 414804|protoflags = e       |protocol = arp|sipaddr = 192.168.1.1|sport = None|dir = who|dipaddr = 192.168.1.100|dport = None|totalpkts = 5|totalbytes = 300|state = INT
eventno = None|eventtype = ARP_FLOW|origin = None|timestamp = 1238568522|timestampusec = 934907|protoflags = e       |protocol = arp|sipaddr = 192.168.1.101|sport = None|dir = who|dipaddr = 192.168.1.171|dport = None|totalpkts = 1|totalbytes = 42|state = INT
eventno = None|eventtype = ARP_FLOW|origin = None|timestamp = 1238568526|timestampusec = 224733|protoflags = e       |protocol = arp|sipaddr = 192.168.1.1|sport = None|dir = who|dipaddr = 192.168.1.100|dport = None|totalpkts = 5|totalbytes = 300|state = INT
eventno = None|eventtype = ARP_FLOW|origin = None|timestamp = 1238568527|timestampusec = 137967|protoflags = e       |protocol = arp|sipaddr = 192.168.1.101|sport = None|dir = who|dipaddr = 192.168.1.172|dport = None|totalpkts = 1|totalbytes = 42|state = INT
eventno = None|eventtype = ARP_FLOW|origin = None|timestamp = 1238568531|timestampusec = 341046|protoflags = e       |protocol = arp|sipaddr = 192.168.1.101|sport = None|dir = who|dipaddr = 192.168.1.173|dport = None|totalpkts = 1|totalbytes = 42|state = INT
eventno = None|eventtype = ARP_FLOW|origin = None|timestamp = 1238568535|timestampusec = 544113|protoflags = e       |protocol = arp|sipaddr = 192.168.1.101|sport = None|dir = who|dipaddr = 192.168.1.174|dport = None|totalpkts = 2|totalbytes = 84|state = INT
eventno = None|eventtype = ARP_FLOW|origin = None|timestamp = 1238568539|timestampusec = 747163|protoflags = e       |protocol = arp|sipaddr = 192.168.1.101|sport = None|dir = who|dipaddr = 192.168.1.175|dport = None|totalpkts = 1|totalbytes = 42|state = INT
eventno = None|eventtype = ARP_FLOW|origin = None|timestamp = 1238568543|timestampusec = 950237|protoflags = e       |protocol = arp|sipaddr = 192.168.1.101|sport = None|dir = who|dipaddr = 192.168.1.176|dport = None|totalpkts = 1|totalbytes = 42|state = INT
eventno = None|eventtype = ARP_FLOW|origin = None|timestamp = 1238568548|timestampusec = 153329|protoflags = e       |protocol = arp|sipaddr = 192.168.1.101|sport = None|dir = who|dipaddr = 192.168.1.177|dport = None|totalpkts = 1|totalbytes = 42|state = INT
eventno = None|eventtype = IGMP_FLOW|origin = None|timestamp = 1238568550|timestampusec = 105218|protoflags = e       |protocol = igmp|sipaddr = 10.118.64.1|sport = None|dir = ->|dipaddr = 224.0.0.1|dport = None|totalpkts = 1|totalbytes = 60|state = INT
eventno = None|eventtype = ARP_FLOW|origin = None|timestamp = 1238568552|timestampusec = 356362|protoflags = e       |protocol = arp|sipaddr = 192.168.1.101|sport = None|dir = who|dipaddr = 192.168.1.178|dport = None|totalpkts = 1|totalbytes = 42|state = INT
eventno = None|eventtype = IGMP_FLOW|origin = None|timestamp = 1238568553|timestampusec = 41752|protoflags = e       |protocol = igmp|sipaddr = 192.168.1.102|sport = None|dir = ->|dipaddr = 224.0.1.60|dport = None|totalpkts = 1|totalbytes = 60|state = INT
eventno = None|eventtype = IGMP_FLOW|origin = None|timestamp = 1238568553|timestampusec = 746730|protoflags = e       |protocol = igmp|sipaddr = 192.168.1.101|sport = None|dir = ->|dipaddr = 239.255.255.250|dport = None|totalpkts = 1|totalbytes = 46|state = INT
eventno = None|eventtype = ARP_FLOW|origin = None|timestamp = 1238568556|timestampusec = 559429|protoflags = e       |protocol = arp|sipaddr = 192.168.1.101|sport = None|dir = who|dipaddr = 192.168.1.179|dport = None|totalpkts = 1|totalbytes = 42|state = INT
eventno = None|eventtype = IGMP_FLOW|origin = None|timestamp = 1238568557|timestampusec = 208374|protoflags = e       |protocol = igmp|sipaddr = 192.168.1.102|sport = None|dir = ->|dipaddr = 224.0.0.251|dport = None|totalpkts = 1|totalbytes = 60|state = INT
eventno = None|eventtype = ARP_FLOW|origin = None|timestamp = 1238568560|timestampusec = 762543|protoflags = e       |protocol = arp|sipaddr = 192.168.1.101|sport = None|dir = who|dipaddr = 192.168.1.180|dport = None|totalpkts = 2|totalbytes = 84|state = INT
eventno = None|eventtype = ARP_FLOW|origin = None|timestamp = 1238568564|timestampusec = 965575|protoflags = e       |protocol = arp|sipaddr = 192.168.1.101|sport = None|dir = who|dipaddr = 192.168.1.181|dport = None|totalpkts = 1|totalbytes = 42|state = INT
eventno = None|eventtype = ARP_FLOW|origin = None|timestamp = 1238568569|timestampusec = 168647|protoflags = e       |protocol = arp|sipaddr = 192.168.1.101|sport = None|dir = who|dipaddr = 192.168.1.182|dport = None|totalpkts = 1|totalbytes = 42|state = INT
eventno = None|eventtype = ARP_FLOW|origin = None|timestamp = 1238568573|timestampusec = 371698|protoflags = e       |protocol = arp|sipaddr = 192.168.1.101|sport = None|dir = who|dipaddr = 192.168.1.183|dport = None|totalpkts = 1|totalbytes = 42|state = INT
eventno = None|eventtype = ARP_FLOW|origin = None|timestamp = 1238568577|timestampusec = 574795|protoflags = e       |protocol = arp|sipaddr = 192.168.1.101|sport = None|dir = who|dipaddr = 192.168.1.184|dport = None|totalpkts = 1|totalbytes = 42|state = INT
eventno = None|eventtype = ARP_FLOW|origin = None|timestamp = 1238568581|timestampusec = 777833|protoflags = e       |protocol = arp|sipaddr = 192.168.1.101|sport = None|dir = who|dipaddr = 192.168.1.185|dport = None|totalpkts = 2|totalbytes = 84|state = INT
eventno = None|eventtype = ARP_FLOW|origin = None|timestamp = 1238568585|timestampusec = 980929|protoflags = e       |protocol = arp|sipaddr = 192.168.1.101|sport = None|dir = who|dipaddr = 192.168.1.186|dport = None|totalpkts = 1|totalbytes = 42|state = INT
eventno = None|eventtype = ARP_FLOW|origin = None|timestamp = 1238568590|timestampusec = 183978|protoflags = e       |protocol = arp|sipaddr = 192.168.1.101|sport = None|dir = who|dipaddr = 192.168.1.187|dport = None|totalpkts = 2|totalbytes = 84|state = INT
eventno = None|eventtype = ARP_FLOW|origin = None|timestamp = 1238568594|timestampusec = 387041|protoflags = e       |protocol = arp|sipaddr = 192.168.1.101|sport = None|dir = who|dipaddr = 192.168.1.188|dport = None|totalpkts = 1|totalbytes = 42|state = INT
eventno = None|eventtype = ARP_FLOW|origin = None|timestamp = 1238568598|timestampusec = 590110|protoflags = e       |protocol = arp|sipaddr = 192.168.1.101|sport = None|dir = who|dipaddr = 192.168.1.189|dport = None|totalpkts = 1|totalbytes = 42|state = INT
eventno = None|eventtype = ARP_FLOW|origin = None|timestamp = 1238568602|timestampusec = 793176|protoflags = e       |protocol = arp|sipaddr = 192.168.1.101|sport = None|dir = who|dipaddr = 192.168.1.190|dport = None|totalpkts = 2|totalbytes = 84|state = INT
eventno = None|eventtype = ARP_FLOW|origin = None|timestamp = 1238568606|timestampusec = 996313|protoflags = e       |protocol = arp|sipaddr = 192.168.1.101|sport = None|dir = who|dipaddr = 192.168.1.191|dport = None|totalpkts = 1|totalbytes = 42|state = INT
eventno = None|eventtype = IGMP_FLOW|origin = None|timestamp = 1238568610|timestampusec = 164722|protoflags = e       |protocol = igmp|sipaddr = 10.118.64.1|sport = None|dir = ->|dipaddr = 224.0.0.1|dport = None|totalpkts = 1|totalbytes = 60|state = INT
eventno = None|eventtype = ARP_FLOW|origin = None|timestamp = 1238568611|timestampusec = 199369|protoflags = e       |protocol = arp|sipaddr = 192.168.1.101|sport = None|dir = who|dipaddr = 192.168.1.192|dport = None|totalpkts = 2|totalbytes = 84|state = INT
eventno = None|eventtype = IGMP_FLOW|origin = None|timestamp = 1238568611|timestampusec = 206526|protoflags = e       |protocol = igmp|sipaddr = 192.168.1.102|sport = None|dir = ->|dipaddr = 224.0.1.60|dport = None|totalpkts = 1|totalbytes = 60|state = INT
eventno = None|eventtype = ARP_FLOW|origin = None|timestamp = 1238568615|timestampusec = 402399|protoflags = e       |protocol = arp|sipaddr = 192.168.1.101|sport = None|dir = who|dipaddr = 192.168.1.193|dport = None|totalpkts = 1|totalbytes = 42|state = INT
eventno = None|eventtype = IGMP_FLOW|origin = None|timestamp = 1238568619|timestampusec = 289398|protoflags = e       |protocol = igmp|sipaddr = 192.168.1.102|sport = None|dir = ->|dipaddr = 239.255.255.250|dport = None|totalpkts = 1|totalbytes = 60|state = INT
eventno = None|eventtype = ARP_FLOW|origin = None|timestamp = 1238568619|timestampusec = 605456|protoflags = e       |protocol = arp|sipaddr = 192.168.1.101|sport = None|dir = who|dipaddr = 192.168.1.194|dport = None|totalpkts = 1|totalbytes = 42|state = INT
eventno = None|eventtype = IGMP_FLOW|origin = None|timestamp = 1238568619|timestampusec = 689382|protoflags = e       |protocol = igmp|sipaddr = 192.168.1.102|sport = None|dir = ->|dipaddr = 224.0.0.251|dport = None|totalpkts = 1|totalbytes = 60|state = INT
eventno = None|eventtype = ARP_FLOW|origin = None|timestamp = 1238568623|timestampusec = 809536|protoflags = e       |protocol = arp|sipaddr = 192.168.1.101|sport = None|dir = who|dipaddr = 192.168.1.195|dport = None|totalpkts = 2|totalbytes = 84|state = INT
eventno = None|eventtype = ARP_FLOW|origin = None|timestamp = 1238568628|timestampusec = 11605|protoflags = e       |protocol = arp|sipaddr = 192.168.1.101|sport = None|dir = who|dipaddr = 192.168.1.196|dport = None|totalpkts = 1|totalbytes = 42|state = INT
eventno = None|eventtype = ARP_FLOW|origin = None|timestamp = 1238568632|timestampusec = 214681|protoflags = e       |protocol = arp|sipaddr = 192.168.1.101|sport = None|dir = who|dipaddr = 192.168.1.197|dport = None|totalpkts = 2|totalbytes = 84|state = INT
eventno = None|eventtype = ARP_FLOW|origin = None|timestamp = 1238568636|timestampusec = 417755|protoflags = e       |protocol = arp|sipaddr = 192.168.1.101|sport = None|dir = who|dipaddr = 192.168.1.198|dport = None|totalpkts = 1|totalbytes = 42|state = INT
eventno = None|eventtype = ARP_FLOW|origin = None|timestamp = 1238568640|timestampusec = 620802|protoflags = e       |protocol = arp|sipaddr = 192.168.1.101|sport = None|dir = who|dipaddr = 192.168.1.199|dport = None|totalpkts = 1|totalbytes = 42|state = INT
[...]
eventno = None|eventtype = ARP_FLOW|origin = None|timestamp = 1238569937|timestampusec = 763547|protoflags = e       |protocol = arp|sipaddr = 192.168.1.1|sport = None|dir = who|dipaddr = 192.168.1.100|dport = None|totalpkts = 5|totalbytes = 300|state = INT
eventno = None|eventtype = IGMP_FLOW|origin = None|timestamp = 1238569937|timestampusec = 789695|protoflags = e       |protocol = igmp|sipaddr = 192.168.1.103|sport = None|dir = ->|dipaddr = 224.0.0.251|dport = None|totalpkts = 1|totalbytes = 60|state = INT
eventno = None|eventtype = UDP_FLOW|origin = None|timestamp = 1238569937|timestampusec = 791387|protoflags = e       |protocol = udp|sipaddr = 192.168.1.103|sport = mdns|dir = ->|dipaddr = 224.0.0.251|dport = mdns|totalpkts = 3|totalbytes = 675|state = INT
eventno = None|eventtype = UDP_FLOW|origin = None|timestamp = 1238569943|timestampusec = 486348|protoflags = e       |protocol = udp|sipaddr = 0.0.0.0|sport = bootpc|dir = ->|dipaddr = 255.255.255.255|dport = bootps|totalpkts = 1|totalbytes = 342|state = INT
eventno = None|eventtype = UDP_FLOW|origin = None|timestamp = 1238569943|timestampusec = 644855|protoflags = e       |protocol = udp|sipaddr = 192.168.1.1|sport = bootps|dir = ->|dipaddr = 255.255.255.255|dport = bootpc|totalpkts = 1|totalbytes = 590|state = INT
eventno = None|eventtype = ARP_FLOW|origin = None|timestamp = 1238569944|timestampusec = 651844|protoflags = e       |protocol = arp|sipaddr = 0.0.0.0|sport = None|dir = who|dipaddr = 192.168.1.103|dport = None|totalpkts = 4|totalbytes = 240|state = INT
eventno = None|eventtype = ARP_FLOW|origin = None|timestamp = 1238569945|timestampusec = 852858|protoflags = e       |protocol = arp|sipaddr = 192.168.1.103|sport = None|dir = who|dipaddr = 192.168.1.103|dport = None|totalpkts = 2|totalbytes = 120|state = INT
eventno = None|eventtype = ARP_FLOW|origin = None|timestamp = 1238569946|timestampusec = 157329|protoflags = e       |protocol = arp|sipaddr = 192.168.1.103|sport = None|dir = who|dipaddr = 192.168.1.1|dport = None|totalpkts = 1|totalbytes = 60|state = INT
eventno = None|eventtype = UDP_FLOW|origin = None|timestamp = 1238569946|timestampusec = 262262|protoflags = e       |protocol = udp|sipaddr = 192.168.1.102|sport = mdns|dir = ->|dipaddr = 224.0.0.251|dport = mdns|totalpkts = 1|totalbytes = 515|state = INT
eventno = None|eventtype = IGMP_FLOW|origin = None|timestamp = 1238569948|timestampusec = 171248|protoflags = e       |protocol = igmp|sipaddr = 192.168.1.103|sport = None|dir = ->|dipaddr = 224.0.0.251|dport = None|totalpkts = 1|totalbytes = 60|state = INT
eventno = None|eventtype = UDP_FLOW|origin = None|timestamp = 1238569972|timestampusec = 830830|protoflags = e       |protocol = udp|sipaddr = 0.0.0.0|sport = bootpc|dir = ->|dipaddr = 255.255.255.255|dport = bootps|totalpkts = 1|totalbytes = 342|state = INT
eventno = None|eventtype = UDP_FLOW|origin = None|timestamp = 1238569972|timestampusec = 991249|protoflags = e       |protocol = udp|sipaddr = 192.168.1.1|sport = bootps|dir = ->|dipaddr = 255.255.255.255|dport = bootpc|totalpkts = 1|totalbytes = 590|state = INT
eventno = None|eventtype = ARP_FLOW|origin = None|timestamp = 1238569973|timestampusec = 998341|protoflags = e       |protocol = arp|sipaddr = 0.0.0.0|sport = None|dir = who|dipaddr = 192.168.1.103|dport = None|totalpkts = 4|totalbytes = 240|state = INT
eventno = None|eventtype = ARP_FLOW|origin = None|timestamp = 1238569975|timestampusec = 199411|protoflags = e       |protocol = arp|sipaddr = 192.168.1.103|sport = None|dir = who|dipaddr = 192.168.1.103|dport = None|totalpkts = 2|totalbytes = 120|state = INT
eventno = None|eventtype = ARP_FLOW|origin = None|timestamp = 1238569975|timestampusec = 503859|protoflags = e       |protocol = arp|sipaddr = 192.168.1.103|sport = None|dir = who|dipaddr = 192.168.1.1|dport = None|totalpkts = 1|totalbytes = 60|state = INT
eventno = None|eventtype = IGMP_FLOW|origin = None|timestamp = 1238569977|timestampusec = 515044|protoflags = e       |protocol = igmp|sipaddr = 192.168.1.103|sport = None|dir = ->|dipaddr = 224.0.0.251|dport = None|totalpkts = 1|totalbytes = 60|state = INT
eventno = None|eventtype = IGMP_FLOW|origin = None|timestamp = 1238569978|timestampusec = 155973|protoflags = e       |protocol = igmp|sipaddr = 192.168.1.103|sport = None|dir = ->|dipaddr = 224.0.0.251|dport = None|totalpkts = 1|totalbytes = 60|state = INT
eventno = None|eventtype = UDP_FLOW|origin = None|timestamp = 1238569978|timestampusec = 277554|protoflags = e       |protocol = udp|sipaddr = 192.168.1.102|sport = mdns|dir = ->|dipaddr = 224.0.0.251|dport = mdns|totalpkts = 1|totalbytes = 515|state = INT
eventno = None|eventtype = ARP_FLOW|origin = None|timestamp = 1238569978|timestampusec = 536702|protoflags = e       |protocol = arp|sipaddr = 192.168.1.103|sport = None|dir = who|dipaddr = 192.168.1.102|dport = None|totalpkts = 1|totalbytes = 60|state = INT
eventno = None|eventtype = UDP_FLOW|origin = None|timestamp = 1238569978|timestampusec = 616416|protoflags = e       |protocol = udp|sipaddr = 192.168.1.103|sport = mdns|dir = ->|dipaddr = 224.0.0.251|dport = mdns|totalpkts = 8|totalbytes = 1787|state = INT
eventno = None|eventtype = IGMP_FLOW|origin = None|timestamp = 1238569991|timestampusec = 694758|protoflags = e       |protocol = igmp|sipaddr = 10.118.64.1|sport = None|dir = ->|dipaddr = 224.0.0.1|dport = None|totalpkts = 1|totalbytes = 60|state = INT
eventno = None|eventtype = IGMP_FLOW|origin = None|timestamp = 1238569992|timestampusec = 575857|protoflags = e       |protocol = igmp|sipaddr = 192.168.1.102|sport = None|dir = ->|dipaddr = 224.0.0.251|dport = None|totalpkts = 1|totalbytes = 60|state = INT
eventno = None|eventtype = UDP_FLOW|origin = None|timestamp = 1238569993|timestampusec = 495116|protoflags = e       |protocol = udp|sipaddr = 0.0.0.0|sport = bootpc|dir = ->|dipaddr = 255.255.255.255|dport = bootps|totalpkts = 1|totalbytes = 342|state = INT
eventno = None|eventtype = UDP_FLOW|origin = None|timestamp = 1238569993|timestampusec = 630283|protoflags = e       |protocol = udp|sipaddr = 192.168.1.1|sport = bootps|dir = ->|dipaddr = 255.255.255.255|dport = bootpc|totalpkts = 1|totalbytes = 590|state = INT
eventno = None|eventtype = ARP_FLOW|origin = None|timestamp = 1238569994|timestampusec = 637403|protoflags = e       |protocol = arp|sipaddr = 0.0.0.0|sport = None|dir = who|dipaddr = 192.168.1.103|dport = None|totalpkts = 4|totalbytes = 240|state = INT
eventno = None|eventtype = ARP_FLOW|origin = None|timestamp = 1238569995|timestampusec = 838511|protoflags = e       |protocol = arp|sipaddr = 192.168.1.103|sport = None|dir = who|dipaddr = 192.168.1.103|dport = None|totalpkts = 2|totalbytes = 120|state = INT
eventno = None|eventtype = ARP_FLOW|origin = None|timestamp = 1238569996|timestampusec = 142907|protoflags = e       |protocol = arp|sipaddr = 192.168.1.103|sport = None|dir = who|dipaddr = 192.168.1.1|dport = None|totalpkts = 1|totalbytes = 60|state = INT
eventno = None|eventtype = IGMP_FLOW|origin = None|timestamp = 1238569997|timestampusec = 775577|protoflags = e       |protocol = igmp|sipaddr = 192.168.1.102|sport = None|dir = ->|dipaddr = 224.0.1.60|dport = None|totalpkts = 1|totalbytes = 60|state = INT
eventno = None|eventtype = IGMP_FLOW|origin = None|timestamp = 1238569998|timestampusec = 157508|protoflags = e       |protocol = igmp|sipaddr = 192.168.1.103|sport = None|dir = ->|dipaddr = 224.0.0.251|dport = None|totalpkts = 1|totalbytes = 60|state = INT
eventno = None|eventtype = IGMP_FLOW|origin = None|timestamp = 1238570000|timestampusec = 610049|protoflags = e       |protocol = igmp|sipaddr = 192.168.1.102|sport = None|dir = ->|dipaddr = 239.255.255.250|dport = None|totalpkts = 1|totalbytes = 60|state = INT
eventno = None|eventtype = UDP_FLOW|origin = None|timestamp = 1238570011|timestampusec = 347238|protoflags = e       |protocol = udp|sipaddr = 0.0.0.0|sport = bootpc|dir = ->|dipaddr = 255.255.255.255|dport = bootps|totalpkts = 3|totalbytes = 1026|state = INT
eventno = None|eventtype = UDP_FLOW|origin = None|timestamp = 1238570011|timestampusec = 542858|protoflags = e       |protocol = udp|sipaddr = 192.168.1.1|sport = bootps|dir = ->|dipaddr = 255.255.255.255|dport = bootpc|totalpkts = 3|totalbytes = 1770|state = INT
eventno = None|eventtype = ARP_FLOW|origin = None|timestamp = 1238570015|timestampusec = 373987|protoflags = e       |protocol = arp|sipaddr = 0.0.0.0|sport = None|dir = who|dipaddr = 169.254.238.125|dport = None|totalpkts = 4|totalbytes = 240|state = INT
eventno = None|eventtype = ARP_FLOW|origin = None|timestamp = 1238570016|timestampusec = 556466|protoflags = e       |protocol = arp|sipaddr = 0.0.0.0|sport = None|dir = who|dipaddr = 192.168.1.103|dport = None|totalpkts = 4|totalbytes = 240|state = INT
eventno = None|eventtype = ARP_FLOW|origin = None|timestamp = 1238570016|timestampusec = 571101|protoflags = e       |protocol = arp|sipaddr = 169.254.238.125|sport = None|dir = who|dipaddr = 169.254.238.125|dport = None|totalpkts = 2|totalbytes = 120|state = INT
eventno = None|eventtype = UDP_FLOW|origin = None|timestamp = 1238570016|timestampusec = 902440|protoflags = e       |protocol = udp|sipaddr = 169.254.238.125|sport = 53204|dir = ->|dipaddr = 224.0.0.251|dport = mdns|totalpkts = 3|totalbytes = 264|state = INT
eventno = None|eventtype = ARP_FLOW|origin = None|timestamp = 1238570017|timestampusec = 757481|protoflags = e       |protocol = arp|sipaddr = 192.168.1.103|sport = None|dir = who|dipaddr = 192.168.1.103|dport = None|totalpkts = 2|totalbytes = 120|state = INT
eventno = None|eventtype = ARP_FLOW|origin = None|timestamp = 1238570018|timestampusec = 62595|protoflags = e       |protocol = arp|sipaddr = 192.168.1.103|sport = None|dir = who|dipaddr = 192.168.1.1|dport = None|totalpkts = 1|totalbytes = 60|state = INT
eventno = None|eventtype = IGMP_FLOW|origin = None|timestamp = 1238570020|timestampusec = 80048|protoflags = e       |protocol = igmp|sipaddr = 192.168.1.103|sport = None|dir = ->|dipaddr = 224.0.0.251|dport = None|totalpkts = 1|totalbytes = 60|state = INT
eventno = None|eventtype = UDP_FLOW|origin = None|timestamp = 1238570025|timestampusec = 80697|protoflags = e       |protocol = udp|sipaddr = 192.168.1.103|sport = mdns|dir = ->|dipaddr = 224.0.0.251|dport = mdns|totalpkts = 4|totalbytes = 1356|state = INT
eventno = None|eventtype = IGMP_FLOW|origin = None|timestamp = 1238570029|timestampusec = 976656|protoflags = e       |protocol = igmp|sipaddr = 192.168.1.103|sport = None|dir = ->|dipaddr = 224.0.0.251|dport = None|totalpkts = 1|totalbytes = 60|state = INT
eventno = None|eventtype = UDP_FLOW|origin = None|timestamp = 1238570033|timestampusec = 80234|protoflags = e       |protocol = udp|sipaddr = 192.168.1.103|sport = mdns|dir = ->|dipaddr = 224.0.0.251|dport = mdns|totalpkts = 5|totalbytes = 549|state = INT
eventno = None|eventtype = UDP_FLOW|origin = None|timestamp = 1238570033|timestampusec = 125171|protoflags = e       |protocol = udp|sipaddr = 192.168.1.102|sport = mdns|dir = ->|dipaddr = 224.0.0.251|dport = mdns|totalpkts = 1|totalbytes = 338|state = INT
eventno = None|eventtype = ARP_FLOW|origin = None|timestamp = 1238570033|timestampusec = 382508|protoflags = e       |protocol = arp|sipaddr = 192.168.1.103|sport = None|dir = who|dipaddr = 192.168.1.102|dport = None|totalpkts = 1|totalbytes = 60|state = INT
eventno = None|eventtype = UDP_FLOW|origin = None|timestamp = 1238570040|timestampusec = 47693|protoflags = e       |protocol = udp|sipaddr = 192.168.1.103|sport = mdns|dir = ->|dipaddr = 224.0.0.251|dport = mdns|totalpkts = 1|totalbytes = 74|state = INT
eventno = None|eventtype = UDP_FLOW|origin = None|timestamp = 1238570042|timestampusec = 291769|protoflags = e       |protocol = udp|sipaddr = 192.168.1.102|sport = mdns|dir = ->|dipaddr = 224.0.0.251|dport = mdns|totalpkts = 1|totalbytes = 410|state = INT
eventno = None|eventtype = UDP_FLOW|origin = None|timestamp = 1238570048|timestampusec = 99523|protoflags = e       |protocol = udp|sipaddr = 192.168.1.103|sport = mdns|dir = ->|dipaddr = 224.0.0.251|dport = mdns|totalpkts = 2|totalbytes = 286|state = INT
eventno = None|eventtype = IGMP_FLOW|origin = None|timestamp = 1238570051|timestampusec = 697802|protoflags = e       |protocol = igmp|sipaddr = 10.118.64.1|sport = None|dir = ->|dipaddr = 224.0.0.1|dport = None|totalpkts = 1|totalbytes = 60|state = INT
eventno = None|eventtype = IGMP_FLOW|origin = None|timestamp = 1238570053|timestampusec = 225601|protoflags = e       |protocol = igmp|sipaddr = 192.168.1.101|sport = None|dir = ->|dipaddr = 239.255.255.250|dport = None|totalpkts = 1|totalbytes = 46|state = INT
eventno = None|eventtype = UDP_FLOW|origin = None|timestamp = 1238570056|timestampusec = 740965|protoflags = e       |protocol = udp|sipaddr = 0.0.0.0|sport = bootpc|dir = ->|dipaddr = 255.255.255.255|dport = bootps|totalpkts = 1|totalbytes = 342|state = INT
eventno = None|eventtype = UDP_FLOW|origin = None|timestamp = 1238570056|timestampusec = 941835|protoflags = e       |protocol = udp|sipaddr = 192.168.1.1|sport = bootps|dir = ->|dipaddr = 255.255.255.255|dport = bootpc|totalpkts = 1|totalbytes = 590|state = INT
eventno = None|eventtype = IGMP_FLOW|origin = None|timestamp = 1238570057|timestampusec = 456868|protoflags = e       |protocol = igmp|sipaddr = 192.168.1.102|sport = None|dir = ->|dipaddr = 224.0.0.251|dport = None|totalpkts = 1|totalbytes = 60|state = INT
eventno = None|eventtype = ARP_FLOW|origin = None|timestamp = 1238570057|timestampusec = 948898|protoflags = e       |protocol = arp|sipaddr = 0.0.0.0|sport = None|dir = who|dipaddr = 192.168.1.103|dport = None|totalpkts = 4|totalbytes = 240|state = INT
eventno = None|eventtype = ARP_FLOW|origin = None|timestamp = 1238570059|timestampusec = 157782|protoflags = e       |protocol = arp|sipaddr = 192.168.1.103|sport = None|dir = who|dipaddr = 192.168.1.103|dport = None|totalpkts = 2|totalbytes = 120|state = INT
eventno = None|eventtype = ARP_FLOW|origin = None|timestamp = 1238570059|timestampusec = 462122|protoflags = e       |protocol = arp|sipaddr = 192.168.1.103|sport = None|dir = who|dipaddr = 192.168.1.1|dport = None|totalpkts = 1|totalbytes = 60|state = INT
eventno = None|eventtype = IGMP_FLOW|origin = None|timestamp = 1238570060|timestampusec = 73434|protoflags = e       |protocol = igmp|sipaddr = 192.168.1.102|sport = None|dir = ->|dipaddr = 224.0.1.60|dport = None|totalpkts = 1|totalbytes = 60|state = INT
eventno = None|eventtype = IGMP_FLOW|origin = None|timestamp = 1238570061|timestampusec = 482696|protoflags = e       |protocol = igmp|sipaddr = 192.168.1.103|sport = None|dir = ->|dipaddr = 224.0.0.251|dport = None|totalpkts = 1|totalbytes = 60|state = INT
eventno = None|eventtype = UDP_FLOW|origin = None|timestamp = 1238570068|timestampusec = 194158|protoflags = e       |protocol = udp|sipaddr = 0.0.0.0|sport = bootpc|dir = ->|dipaddr = 255.255.255.255|dport = bootps|totalpkts = 2|totalbytes = 684|state = INT
eventno = None|eventtype = UDP_FLOW|origin = None|timestamp = 1238570068|timestampusec = 408213|protoflags = e       |protocol = udp|sipaddr = 192.168.1.1|sport = bootps|dir = ->|dipaddr = 255.255.255.255|dport = bootpc|totalpkts = 2|totalbytes = 1180|state = INT
eventno = None|eventtype = UDP_FLOW|origin = None|timestamp = 1238570106|timestampusec = 974894|protoflags = e       |protocol = udp|sipaddr = 192.168.1.101|sport = netbio|dir = ->|dipaddr = 192.168.1.255|dport = netbio|totalpkts = 2|totalbytes = 459|state = INT
eventno = None|eventtype = UDP_FLOW|origin = None|timestamp = 1238570111|timestampusec = 575711|protoflags = e       |protocol = udp|sipaddr = 192.168.1.101|sport = netbio|dir = ->|dipaddr = 192.168.1.255|dport = netbio|totalpkts = 4|totalbytes = 368|state = INT
eventno = None|eventtype = IGMP_FLOW|origin = None|timestamp = 1238570111|timestampusec = 701095|protoflags = e       |protocol = igmp|sipaddr = 10.118.64.1|sport = None|dir = ->|dipaddr = 224.0.0.1|dport = None|totalpkts = 1|totalbytes = 60|state = INT
eventno = None|eventtype = UDP_FLOW|origin = None|timestamp = 1238570113|timestampusec = 653827|protoflags = e       |protocol = udp|sipaddr = 0.0.0.0|sport = bootpc|dir = ->|dipaddr = 255.255.255.255|dport = bootps|totalpkts = 2|totalbytes = 684|state = INT
eventno = None|eventtype = UDP_FLOW|origin = None|timestamp = 1238570113|timestampusec = 822147|protoflags = e       |protocol = udp|sipaddr = 192.168.1.1|sport = bootps|dir = ->|dipaddr = 255.255.255.255|dport = bootpc|totalpkts = 2|totalbytes = 1180|state = INT
eventno = None|eventtype = UDP_FLOW|origin = None|timestamp = 1238570115|timestampusec = 818479|protoflags = e       |protocol = udp|sipaddr = 192.168.1.101|sport = netbio|dir = ->|dipaddr = 192.168.1.255|dport = netbio|totalpkts = 1|totalbytes = 216|state = INT
eventno = None|eventtype = IP_FLOW|origin = None|timestamp = 4026531839|timestampusec = 0|protoflags = e       |protocol = ip|sipaddr = 0:1d:7d:a4:78:24|sport = None|dir = ->|dipaddr = Broadcast|dport = None|totalpkts = 1|totalbytes = 16777216|state = INT
eventno = None|eventtype = TCP_FLOW|origin = None|timestamp = 1203457661|timestampusec = 159625|protoflags = e *     |protocol = tcp|sipaddr = 192.168.0.93|sport = 2283|dir = ->|dipaddr = 192.168.0.84|dport = netbio|totalpkts = 34012|totalbytes = 3839232|state = FIN
eventno = None|eventtype = TCP_FLOW|origin = None|timestamp = 1203457661|timestampusec = 159625|protoflags = e *     |protocol = tcp|sipaddr = 192.168.0.93|sport = 2283|dir = ->|dipaddr = 192.168.0.84|dport = netbio|totalpkts = 34012|totalbytes = 3839232|state = FIN
eventno = None|eventtype = TCP_FLOW|origin = None|timestamp = 1203457661|timestampusec = 159625|protoflags = e *     |protocol = tcp|sipaddr = 192.168.0.93|sport = 2283|dir = ->|dipaddr = 192.168.0.84|dport = netbio|totalpkts = 34012|totalbytes = 3839232|state = FIN
eventno = None|eventtype = TCP_FLOW|origin = None|timestamp = 1203457661|timestampusec = 159625|protoflags = e *     |protocol = tcp|sipaddr = 192.168.0.93|sport = 2283|dir = ->|dipaddr = 192.168.0.84|dport = netbio|totalpkts = 5632|totalbytes = 636616|state = CON
eventno = None|eventtype = TCP_FLOW|origin = None|timestamp = 1203457666|timestampusec = 160199|protoflags = e *     |protocol = tcp|sipaddr = 192.168.0.93|sport = 2283|dir = ->|dipaddr = 192.168.0.84|dport = netbio|totalpkts = 4968|totalbytes = 560444|state = CON
eventno = None|eventtype = TCP_FLOW|origin = None|timestamp = 1203457671|timestampusec = 162564|protoflags = e *     |protocol = tcp|sipaddr = 192.168.0.93|sport = 2283|dir = ->|dipaddr = 192.168.0.84|dport = netbio|totalpkts = 5174|totalbytes = 583252|state = CON
eventno = None|eventtype = TCP_FLOW|origin = None|timestamp = 1203457676|timestampusec = 164206|protoflags = e *     |protocol = tcp|sipaddr = 192.168.0.93|sport = 2283|dir = ->|dipaddr = 192.168.0.84|dport = netbio|totalpkts = 5320|totalbytes = 600408|state = CON
eventno = None|eventtype = TCP_FLOW|origin = None|timestamp = 1203457681|timestampusec = 166508|protoflags = e *     |protocol = tcp|sipaddr = 192.168.0.93|sport = 2283|dir = ->|dipaddr = 192.168.0.84|dport = netbio|totalpkts = 5436|totalbytes = 613516|state = CON
eventno = None|eventtype = TCP_FLOW|origin = None|timestamp = 1203457686|timestampusec = 169334|protoflags = e *     |protocol = tcp|sipaddr = 192.168.0.93|sport = 2283|dir = ->|dipaddr = 192.168.0.84|dport = netbio|totalpkts = 5480|totalbytes = 619240|state = CON
eventno = None|eventtype = TCP_FLOW|origin = None|timestamp = 1203457691|timestampusec = 170609|protoflags = e *     |protocol = tcp|sipaddr = 192.168.0.93|sport = 2283|dir = ->|dipaddr = 192.168.0.84|dport = netbio|totalpkts = 2002|totalbytes = 225756|state = FIN
Wrote 1220 events to database
+=============+
| Statistics  |
+=============+
Parsing Failures     : 0
Total Input Records  : 1220
Parsed Successfully  : 1220
Events Output        : 1220
