#############################################
#    Raw Data to Events Normalizer - v0.1a  #
#############################################
Input file: ../saf-data/db//../rawdata/argusflow_10recs_nondefault.log
Output file: /tmp/temp/basic.sqlite
Plugin attributes (with default values): 
	eventno = None
	eventtype = None
	origin = None
	timestamp = None
	timestampusec = None
	stime = None
	duration = None
	sipaddr = None
	dipaddr = None
Connecting to output database /tmp/temp/basic.sqlite
Parsing records..
eventno = None|eventtype = None|origin = None|timestamp = 1238567803|timestampusec = 632043|stime = 1238567803.632043|duration = 0.000000|sipaddr = 192.168.1.101|dipaddr = 239.255.255.250
eventno = None|eventtype = None|origin = None|timestamp = 1238567805|timestampusec = 601316|stime = 1238567805.601316|duration = 0.000000|sipaddr = 192.168.1.102|dipaddr = 192.168.1.101
eventno = None|eventtype = None|origin = None|timestamp = 1238567807|timestampusec = 621207|stime = 1238567807.621207|duration = 0.124814|sipaddr = 192.168.1.101|dipaddr = 192.168.1.102
eventno = None|eventtype = None|origin = None|timestamp = 1238567807|timestampusec = 746028|stime = 1238567807.746028|duration = 2.872294|sipaddr = 192.168.1.101|dipaddr = 192.168.1.102
eventno = None|eventtype = None|origin = None|timestamp = 1238567808|timestampusec = 301054|stime = 1238567808.301054|duration = 0.000000|sipaddr = 192.168.1.1|dipaddr = 192.168.1.101
eventno = None|eventtype = None|origin = None|timestamp = 1238567810|timestampusec = 609792|stime = 1238567810.609792|duration = 0.030504|sipaddr = 192.168.1.101|dipaddr = 192.168.1.102
eventno = None|eventtype = None|origin = None|timestamp = 1238567810|timestampusec = 632058|stime = 1238567810.632058|duration = 0.028582|sipaddr = 192.168.1.101|dipaddr = 192.168.1.102
eventno = None|eventtype = None|origin = None|timestamp = 1238567810|timestampusec = 655166|stime = 1238567810.655166|duration = 4.995909|sipaddr = 192.168.1.101|dipaddr = 192.168.1.102
eventno = None|eventtype = None|origin = None|timestamp = 1238567815|timestampusec = 648123|stime = 1238567815.648123|duration = 3.030530|sipaddr = 192.168.1.101|dipaddr = 192.168.1.1
eventno = None|eventtype = None|origin = None|timestamp = 1238567815|timestampusec = 764873|stime = 1238567815.764873|duration = 0.012474|sipaddr = 192.168.1.101|dipaddr = 65.32.5.111
eventno = None|eventtype = None|origin = None|timestamp = 1238567815|timestampusec = 777635|stime = 1238567815.777635|duration = 0.229108|sipaddr = 192.168.1.101|dipaddr = 66.114.124.141
eventno = None|eventtype = None|origin = None|timestamp = 1238567815|timestampusec = 934347|stime = 1238567815.934347|duration = 0.016705|sipaddr = 192.168.1.101|dipaddr = 65.32.5.111
eventno = None|eventtype = None|origin = None|timestamp = 1238567815|timestampusec = 951377|stime = 1238567815.951377|duration = 0.119768|sipaddr = 192.168.1.101|dipaddr = 75.126.138.202
eventno = None|eventtype = None|origin = None|timestamp = 1238567816|timestampusec = 30154|stime = 1238567816.030154|duration = 0.016923|sipaddr = 192.168.1.101|dipaddr = 65.32.5.111
Wrote 14 events to database
+=============+
| Statistics  |
+=============+
Parsing Failures     : 0
Total Input Records  : 14
Parsed Successfully  : 14
Events Output        : 14
