#############################################
#    Raw Data to Events Normalizer - v0.1a  #
#############################################
Input file: ../saf-data/db//../rawdata/bindquery.log
Output file: /tmp/temp/syslog.sqlite
Plugin attributes (with default values): 
	eventno = None
	eventtype = None
	origin = None
	timestamp = None
	timestampusec = None
	hostname = None
	daemon = None
	pid = None
	clientip = None
	clientport = None
	query = None
	rrname = None
	rrtype = None
	options = None
	nsname = None
Connecting to output database /tmp/temp/syslog.sqlite
Parsing records..
Unable to parse 'Jun 18 07:46:46 n30-hp rsyslogd: [origin software="rsyslogd" swVersion="4.6.4" x-pid="832" x-info="http://www.rsyslog.com"] rsyslogd was HUPed, type \'lightweight\'.' (0 chars parsed of 163),returned value was (0, [], 0)
None
eventno = None|eventtype = BINDDNSQUERY|origin = n30-hp|timestamp = 1308408411|timestampusec = 0|hostname = n30-hp|daemon = named|pid = 2513|clientip = 192.168.2.51|clientport = 60408|query = boreas.isi.edu|rrname = IN|rrtype = A|options = +|nsname = 192.168.2.54
eventno = None|eventtype = BINDDNSQUERY|origin = n30-hp|timestamp = 1308408436|timestampusec = 0|hostname = n30-hp|daemon = named|pid = 2513|clientip = 192.168.2.51|clientport = 51150|query = www.google.com|rrname = IN|rrtype = A|options = +|nsname = 192.168.2.54
eventno = None|eventtype = BINDDNSQUERY|origin = n30-hp|timestamp = 1308408445|timestampusec = 0|hostname = n30-hp|daemon = named|pid = 2513|clientip = 192.168.2.57|clientport = 48534|query = www.palm.com|rrname = IN|rrtype = A|options = +|nsname = 192.168.2.54
eventno = None|eventtype = BINDDNSQUERY|origin = n30-hp|timestamp = 1308408543|timestampusec = 0|hostname = n30-hp|daemon = named|pid = 2513|clientip = 192.168.2.55|clientport = 13886|query = www.google-analytics.com|rrname = IN|rrtype = A|options = +|nsname = 192.168.2.54
Unable to parse "Jun 18 07:49:09 n30-hp anacron[2167]: Job `cron.daily' terminated" (0 chars parsed of 65),returned value was (0, [], 0)
None
Unable to parse 'Jun 18 07:49:09 n30-hp anacron[2167]: Normal exit (1 job run)' (0 chars parsed of 61),returned value was (0, [], 0)
None
eventno = None|eventtype = BINDDNSQUERY|origin = n30-hp|timestamp = 1308408573|timestampusec = 0|hostname = n30-hp|daemon = named|pid = 2513|clientip = 192.168.2.55|clientport = 13517|query = projectappetite.com|rrname = IN|rrtype = A|options = +|nsname = 192.168.2.54
eventno = None|eventtype = BINDDNSQUERY|origin = n30-hp|timestamp = 1308408577|timestampusec = 0|hostname = n30-hp|daemon = named|pid = 2513|clientip = 192.168.2.51|clientport = 59097|query = api.facebook.com|rrname = IN|rrtype = AAAA|options = +|nsname = 192.168.2.54
eventno = None|eventtype = BINDDNSQUERY|origin = n30-hp|timestamp = 1308408577|timestampusec = 0|hostname = n30-hp|daemon = named|pid = 2513|clientip = 192.168.2.51|clientport = 48203|query = api.facebook.com|rrname = IN|rrtype = AAAA|options = +|nsname = 192.168.2.54
eventno = None|eventtype = BINDDNSQUERY|origin = n30-hp|timestamp = 1308408577|timestampusec = 0|hostname = n30-hp|daemon = named|pid = 2513|clientip = 192.168.2.51|clientport = 35334|query = api.facebook.com|rrname = IN|rrtype = A|options = +|nsname = 192.168.2.54
eventno = None|eventtype = BINDDNSQUERY|origin = n30-hp|timestamp = 1308408580|timestampusec = 0|hostname = n30-hp|daemon = named|pid = 2513|clientip = 192.168.2.51|clientport = 55868|query = api.facebook.com|rrname = IN|rrtype = AAAA|options = +|nsname = 192.168.2.54
eventno = None|eventtype = BINDDNSQUERY|origin = n30-hp|timestamp = 1308408581|timestampusec = 0|hostname = n30-hp|daemon = named|pid = 2513|clientip = 192.168.2.51|clientport = 55543|query = api.facebook.com|rrname = IN|rrtype = AAAA|options = +|nsname = 192.168.2.54
eventno = None|eventtype = BINDDNSQUERY|origin = n30-hp|timestamp = 1308408581|timestampusec = 0|hostname = n30-hp|daemon = named|pid = 2513|clientip = 192.168.2.51|clientport = 49287|query = api.facebook.com|rrname = IN|rrtype = A|options = +|nsname = 192.168.2.54
eventno = None|eventtype = BINDDNSQUERY|origin = n30-hp|timestamp = 1308408583|timestampusec = 0|hostname = n30-hp|daemon = named|pid = 2513|clientip = 192.168.2.51|clientport = 52357|query = api.facebook.com|rrname = IN|rrtype = AAAA|options = +|nsname = 192.168.2.54
eventno = None|eventtype = BINDDNSQUERY|origin = n30-hp|timestamp = 1308408583|timestampusec = 0|hostname = n30-hp|daemon = named|pid = 2513|clientip = 192.168.2.51|clientport = 49491|query = api.facebook.com|rrname = IN|rrtype = AAAA|options = +|nsname = 192.168.2.54
eventno = None|eventtype = BINDDNSQUERY|origin = n30-hp|timestamp = 1308408583|timestampusec = 0|hostname = n30-hp|daemon = named|pid = 2513|clientip = 192.168.2.51|clientport = 44154|query = api.facebook.com|rrname = IN|rrtype = A|options = +|nsname = 192.168.2.54
eventno = None|eventtype = BINDDNSQUERY|origin = n30-hp|timestamp = 1308408585|timestampusec = 0|hostname = n30-hp|daemon = named|pid = 2513|clientip = 192.168.2.51|clientport = 54096|query = api.flickr.com|rrname = IN|rrtype = AAAA|options = +|nsname = 192.168.2.54
eventno = None|eventtype = BINDDNSQUERY|origin = n30-hp|timestamp = 1308408585|timestampusec = 0|hostname = n30-hp|daemon = named|pid = 2513|clientip = 192.168.2.51|clientport = 49813|query = api.flickr.com|rrname = IN|rrtype = A|options = +|nsname = 192.168.2.54
eventno = None|eventtype = BINDDNSQUERY|origin = n30-hp|timestamp = 1308408585|timestampusec = 0|hostname = n30-hp|daemon = named|pid = 2513|clientip = 192.168.2.51|clientport = 41225|query = api.twitter.com|rrname = IN|rrtype = AAAA|options = +|nsname = 192.168.2.54
eventno = None|eventtype = BINDDNSQUERY|origin = n30-hp|timestamp = 1308408585|timestampusec = 0|hostname = n30-hp|daemon = named|pid = 2513|clientip = 192.168.2.51|clientport = 41037|query = api.twitter.com|rrname = IN|rrtype = AAAA|options = +|nsname = 192.168.2.54
eventno = None|eventtype = BINDDNSQUERY|origin = n30-hp|timestamp = 1308408585|timestampusec = 0|hostname = n30-hp|daemon = named|pid = 2513|clientip = 192.168.2.51|clientport = 55328|query = api.twitter.com|rrname = IN|rrtype = A|options = +|nsname = 192.168.2.54
eventno = None|eventtype = BINDDNSQUERY|origin = n30-hp|timestamp = 1308408586|timestampusec = 0|hostname = n30-hp|daemon = named|pid = 2513|clientip = 192.168.2.51|clientport = 41864|query = api.twitter.com|rrname = IN|rrtype = AAAA|options = +|nsname = 192.168.2.54
eventno = None|eventtype = BINDDNSQUERY|origin = n30-hp|timestamp = 1308408586|timestampusec = 0|hostname = n30-hp|daemon = named|pid = 2513|clientip = 192.168.2.51|clientport = 53376|query = api.twitter.com|rrname = IN|rrtype = AAAA|options = +|nsname = 192.168.2.54
eventno = None|eventtype = BINDDNSQUERY|origin = n30-hp|timestamp = 1308408586|timestampusec = 0|hostname = n30-hp|daemon = named|pid = 2513|clientip = 192.168.2.51|clientport = 40006|query = api.twitter.com|rrname = IN|rrtype = A|options = +|nsname = 192.168.2.54
eventno = None|eventtype = BINDDNSQUERY|origin = n30-hp|timestamp = 1308408586|timestampusec = 0|hostname = n30-hp|daemon = named|pid = 2513|clientip = 192.168.2.51|clientport = 58863|query = api.twitter.com|rrname = IN|rrtype = AAAA|options = +|nsname = 192.168.2.54
eventno = None|eventtype = BINDDNSQUERY|origin = n30-hp|timestamp = 1308408587|timestampusec = 0|hostname = n30-hp|daemon = named|pid = 2513|clientip = 192.168.2.51|clientport = 33793|query = api.twitter.com|rrname = IN|rrtype = AAAA|options = +|nsname = 192.168.2.54
eventno = None|eventtype = BINDDNSQUERY|origin = n30-hp|timestamp = 1308408587|timestampusec = 0|hostname = n30-hp|daemon = named|pid = 2513|clientip = 192.168.2.51|clientport = 49096|query = api.twitter.com|rrname = IN|rrtype = A|options = +|nsname = 192.168.2.54
eventno = None|eventtype = BINDDNSQUERY|origin = n30-hp|timestamp = 1308408616|timestampusec = 0|hostname = n30-hp|daemon = named|pid = 2513|clientip = 192.168.2.51|clientport = 58894|query = www.google.com|rrname = IN|rrtype = A|options = +|nsname = 192.168.2.54
eventno = None|eventtype = BINDDNSQUERY|origin = n30-hp|timestamp = 1308408616|timestampusec = 0|hostname = n30-hp|daemon = named|pid = 2513|clientip = 192.168.2.51|clientport = 47114|query = www.google.com|rrname = IN|rrtype = A|options = +|nsname = 192.168.2.54
eventno = None|eventtype = BINDDNSQUERY|origin = n30-hp|timestamp = 1308408667|timestampusec = 0|hostname = n30-hp|daemon = named|pid = 2513|clientip = 192.168.2.51|clientport = 57765|query = couchdb.one.ubuntu.com|rrname = IN|rrtype = A|options = +|nsname = 192.168.2.54
eventno = None|eventtype = BINDDNSQUERY|origin = n30-hp|timestamp = 1308408668|timestampusec = 0|hostname = n30-hp|daemon = named|pid = 2513|clientip = 192.168.2.51|clientport = 47754|query = couchdb.one.ubuntu.com|rrname = IN|rrtype = A|options = +|nsname = 192.168.2.54
eventno = None|eventtype = BINDDNSQUERY|origin = n30-hp|timestamp = 1308408669|timestampusec = 0|hostname = n30-hp|daemon = named|pid = 2513|clientip = 192.168.2.51|clientport = 52624|query = couchdb.one.ubuntu.com|rrname = IN|rrtype = A|options = +|nsname = 192.168.2.54
eventno = None|eventtype = BINDDNSQUERY|origin = n30-hp|timestamp = 1308408670|timestampusec = 0|hostname = n30-hp|daemon = named|pid = 2513|clientip = 192.168.2.51|clientport = 50388|query = couchdb.one.ubuntu.com|rrname = IN|rrtype = A|options = +|nsname = 192.168.2.54
eventno = None|eventtype = BINDDNSQUERY|origin = n30-hp|timestamp = 1308408671|timestampusec = 0|hostname = n30-hp|daemon = named|pid = 2513|clientip = 192.168.2.51|clientport = 47220|query = couchdb.one.ubuntu.com|rrname = IN|rrtype = A|options = +|nsname = 192.168.2.54
eventno = None|eventtype = BINDDNSQUERY|origin = n30-hp|timestamp = 1308408672|timestampusec = 0|hostname = n30-hp|daemon = named|pid = 2513|clientip = 192.168.2.51|clientport = 56573|query = couchdb.one.ubuntu.com|rrname = IN|rrtype = A|options = +|nsname = 192.168.2.54
eventno = None|eventtype = BINDDNSQUERY|origin = n30-hp|timestamp = 1308408672|timestampusec = 0|hostname = n30-hp|daemon = named|pid = 2513|clientip = 192.168.2.51|clientport = 46969|query = couchdb.one.ubuntu.com|rrname = IN|rrtype = A|options = +|nsname = 192.168.2.54
eventno = None|eventtype = BINDDNSQUERY|origin = n30-hp|timestamp = 1308408673|timestampusec = 0|hostname = n30-hp|daemon = named|pid = 2513|clientip = 192.168.2.51|clientport = 60842|query = couchdb.one.ubuntu.com|rrname = IN|rrtype = A|options = +|nsname = 192.168.2.54
eventno = None|eventtype = BINDDNSQUERY|origin = n30-hp|timestamp = 1308408674|timestampusec = 0|hostname = n30-hp|daemon = named|pid = 2513|clientip = 192.168.2.51|clientport = 33671|query = couchdb.one.ubuntu.com|rrname = IN|rrtype = A|options = +|nsname = 192.168.2.54
eventno = None|eventtype = BINDDNSQUERY|origin = n30-hp|timestamp = 1308408675|timestampusec = 0|hostname = n30-hp|daemon = named|pid = 2513|clientip = 192.168.2.51|clientport = 35192|query = couchdb.one.ubuntu.com|rrname = IN|rrtype = A|options = +|nsname = 192.168.2.54
eventno = None|eventtype = BINDDNSQUERY|origin = n30-hp|timestamp = 1308408676|timestampusec = 0|hostname = n30-hp|daemon = named|pid = 2513|clientip = 192.168.2.51|clientport = 37940|query = couchdb.one.ubuntu.com|rrname = IN|rrtype = A|options = +|nsname = 192.168.2.54
eventno = None|eventtype = BINDDNSQUERY|origin = n30-hp|timestamp = 1308408677|timestampusec = 0|hostname = n30-hp|daemon = named|pid = 2513|clientip = 192.168.2.51|clientport = 41588|query = couchdb.one.ubuntu.com|rrname = IN|rrtype = A|options = +|nsname = 192.168.2.54
eventno = None|eventtype = BINDDNSQUERY|origin = n30-hp|timestamp = 1308408678|timestampusec = 0|hostname = n30-hp|daemon = named|pid = 2513|clientip = 192.168.2.51|clientport = 39334|query = couchdb.one.ubuntu.com|rrname = IN|rrtype = A|options = +|nsname = 192.168.2.54
eventno = None|eventtype = BINDDNSQUERY|origin = n30-hp|timestamp = 1308408724|timestampusec = 0|hostname = n30-hp|daemon = named|pid = 2513|clientip = 192.168.2.55|clientport = 55108|query = www.google.com|rrname = IN|rrtype = A|options = +|nsname = 192.168.2.54
eventno = None|eventtype = BINDDNSQUERY|origin = n30-hp|timestamp = 1308408743|timestampusec = 0|hostname = n30-hp|daemon = named|pid = 2513|clientip = 192.168.2.56|clientport = 54674|query = boreas.isi.edu|rrname = IN|rrtype = AAAA|options = +|nsname = 192.168.2.54
eventno = None|eventtype = BINDDNSQUERY|origin = n30-hp|timestamp = 1308408743|timestampusec = 0|hostname = n30-hp|daemon = named|pid = 2513|clientip = 192.168.2.56|clientport = 40512|query = boreas.isi.edu|rrname = IN|rrtype = AAAA|options = +|nsname = 192.168.2.54
Unable to parse 'Jun 18 07:52:23 n30-hp named[2513]: client 192.168.2.1#64621: query: boreas.isi.edu IN AAAA +ED (192.168.2.54)' (0 chars parsed of 110),returned value was (0, [], 0)
None
eventno = None|eventtype = BINDDNSQUERY|origin = n30-hp|timestamp = 1308408744|timestampusec = 0|hostname = n30-hp|daemon = named|pid = 2513|clientip = 192.168.2.56|clientport = 34882|query = boreas.isi.edu|rrname = IN|rrtype = A|options = +|nsname = 192.168.2.54
eventno = None|eventtype = BINDDNSQUERY|origin = n30-hp|timestamp = 1308408796|timestampusec = 0|hostname = n30-hp|daemon = named|pid = 2513|clientip = 192.168.2.51|clientport = 45326|query = www.google.com|rrname = IN|rrtype = A|options = +|nsname = 192.168.2.54
eventno = None|eventtype = BINDDNSQUERY|origin = n30-hp|timestamp = 1308408828|timestampusec = 0|hostname = n30-hp|daemon = named|pid = 2513|clientip = 192.168.2.58|clientport = 41581|query = griffin.logs.roku.com|rrname = IN|rrtype = A|options = +|nsname = 192.168.2.54
eventno = None|eventtype = BINDDNSQUERY|origin = n30-hp|timestamp = 1308408877|timestampusec = 0|hostname = n30-hp|daemon = named|pid = 2513|clientip = 192.168.2.51|clientport = 35159|query = api.facebook.com|rrname = IN|rrtype = AAAA|options = +|nsname = 192.168.2.54
eventno = None|eventtype = BINDDNSQUERY|origin = n30-hp|timestamp = 1308408877|timestampusec = 0|hostname = n30-hp|daemon = named|pid = 2513|clientip = 192.168.2.51|clientport = 58347|query = api.facebook.com|rrname = IN|rrtype = AAAA|options = +|nsname = 192.168.2.54
eventno = None|eventtype = BINDDNSQUERY|origin = n30-hp|timestamp = 1308408877|timestampusec = 0|hostname = n30-hp|daemon = named|pid = 2513|clientip = 192.168.2.51|clientport = 39143|query = api.facebook.com|rrname = IN|rrtype = A|options = +|nsname = 192.168.2.54
eventno = None|eventtype = BINDDNSQUERY|origin = n30-hp|timestamp = 1308408879|timestampusec = 0|hostname = n30-hp|daemon = named|pid = 2513|clientip = 192.168.2.51|clientport = 40302|query = api.facebook.com|rrname = IN|rrtype = AAAA|options = +|nsname = 192.168.2.54
eventno = None|eventtype = BINDDNSQUERY|origin = n30-hp|timestamp = 1308408880|timestampusec = 0|hostname = n30-hp|daemon = named|pid = 2513|clientip = 192.168.2.51|clientport = 55120|query = api.facebook.com|rrname = IN|rrtype = AAAA|options = +|nsname = 192.168.2.54
eventno = None|eventtype = BINDDNSQUERY|origin = n30-hp|timestamp = 1308408880|timestampusec = 0|hostname = n30-hp|daemon = named|pid = 2513|clientip = 192.168.2.51|clientport = 56565|query = api.facebook.com|rrname = IN|rrtype = A|options = +|nsname = 192.168.2.54
eventno = None|eventtype = BINDDNSQUERY|origin = n30-hp|timestamp = 1308408882|timestampusec = 0|hostname = n30-hp|daemon = named|pid = 2513|clientip = 192.168.2.51|clientport = 50337|query = api.facebook.com|rrname = IN|rrtype = AAAA|options = +|nsname = 192.168.2.54
eventno = None|eventtype = BINDDNSQUERY|origin = n30-hp|timestamp = 1308408882|timestampusec = 0|hostname = n30-hp|daemon = named|pid = 2513|clientip = 192.168.2.51|clientport = 47309|query = api.facebook.com|rrname = IN|rrtype = AAAA|options = +|nsname = 192.168.2.54
eventno = None|eventtype = BINDDNSQUERY|origin = n30-hp|timestamp = 1308408882|timestampusec = 0|hostname = n30-hp|daemon = named|pid = 2513|clientip = 192.168.2.51|clientport = 52708|query = api.facebook.com|rrname = IN|rrtype = A|options = +|nsname = 192.168.2.54
eventno = None|eventtype = BINDDNSQUERY|origin = n30-hp|timestamp = 1308408884|timestampusec = 0|hostname = n30-hp|daemon = named|pid = 2513|clientip = 192.168.2.51|clientport = 59384|query = api.flickr.com|rrname = IN|rrtype = AAAA|options = +|nsname = 192.168.2.54
eventno = None|eventtype = BINDDNSQUERY|origin = n30-hp|timestamp = 1308408884|timestampusec = 0|hostname = n30-hp|daemon = named|pid = 2513|clientip = 192.168.2.51|clientport = 34543|query = api.flickr.com|rrname = IN|rrtype = A|options = +|nsname = 192.168.2.54
eventno = None|eventtype = BINDDNSQUERY|origin = n30-hp|timestamp = 1308408884|timestampusec = 0|hostname = n30-hp|daemon = named|pid = 2513|clientip = 192.168.2.51|clientport = 60669|query = api.twitter.com|rrname = IN|rrtype = AAAA|options = +|nsname = 192.168.2.54
eventno = None|eventtype = BINDDNSQUERY|origin = n30-hp|timestamp = 1308408884|timestampusec = 0|hostname = n30-hp|daemon = named|pid = 2513|clientip = 192.168.2.51|clientport = 55564|query = api.twitter.com|rrname = IN|rrtype = AAAA|options = +|nsname = 192.168.2.54
eventno = None|eventtype = BINDDNSQUERY|origin = n30-hp|timestamp = 1308408884|timestampusec = 0|hostname = n30-hp|daemon = named|pid = 2513|clientip = 192.168.2.51|clientport = 39294|query = api.twitter.com|rrname = IN|rrtype = A|options = +|nsname = 192.168.2.54
eventno = None|eventtype = BINDDNSQUERY|origin = n30-hp|timestamp = 1308408885|timestampusec = 0|hostname = n30-hp|daemon = named|pid = 2513|clientip = 192.168.2.51|clientport = 60926|query = api.twitter.com|rrname = IN|rrtype = AAAA|options = +|nsname = 192.168.2.54
eventno = None|eventtype = BINDDNSQUERY|origin = n30-hp|timestamp = 1308408885|timestampusec = 0|hostname = n30-hp|daemon = named|pid = 2513|clientip = 192.168.2.51|clientport = 44278|query = api.twitter.com|rrname = IN|rrtype = AAAA|options = +|nsname = 192.168.2.54
eventno = None|eventtype = BINDDNSQUERY|origin = n30-hp|timestamp = 1308408885|timestampusec = 0|hostname = n30-hp|daemon = named|pid = 2513|clientip = 192.168.2.51|clientport = 56310|query = api.twitter.com|rrname = IN|rrtype = A|options = +|nsname = 192.168.2.54
eventno = None|eventtype = BINDDNSQUERY|origin = n30-hp|timestamp = 1308408885|timestampusec = 0|hostname = n30-hp|daemon = named|pid = 2513|clientip = 192.168.2.51|clientport = 47258|query = api.twitter.com|rrname = IN|rrtype = AAAA|options = +|nsname = 192.168.2.54
eventno = None|eventtype = BINDDNSQUERY|origin = n30-hp|timestamp = 1308408885|timestampusec = 0|hostname = n30-hp|daemon = named|pid = 2513|clientip = 192.168.2.51|clientport = 58030|query = api.twitter.com|rrname = IN|rrtype = AAAA|options = +|nsname = 192.168.2.54
eventno = None|eventtype = BINDDNSQUERY|origin = n30-hp|timestamp = 1308408885|timestampusec = 0|hostname = n30-hp|daemon = named|pid = 2513|clientip = 192.168.2.51|clientport = 46029|query = api.twitter.com|rrname = IN|rrtype = A|options = +|nsname = 192.168.2.54
eventno = None|eventtype = BINDDNSQUERY|origin = n30-hp|timestamp = 1308408963|timestampusec = 0|hostname = n30-hp|daemon = named|pid = 2513|clientip = 192.168.2.57|clientport = 16475|query = www.google.com|rrname = IN|rrtype = A|options = +|nsname = 192.168.2.54
eventno = None|eventtype = BINDDNSQUERY|origin = n30-hp|timestamp = 1308408976|timestampusec = 0|hostname = n30-hp|daemon = named|pid = 2513|clientip = 192.168.2.51|clientport = 60268|query = www.google.com|rrname = IN|rrtype = A|options = +|nsname = 192.168.2.54
eventno = None|eventtype = BINDDNSQUERY|origin = n30-hp|timestamp = 1308408976|timestampusec = 0|hostname = n30-hp|daemon = named|pid = 2513|clientip = 192.168.2.51|clientport = 48956|query = www.google.com|rrname = IN|rrtype = A|options = +|nsname = 192.168.2.54
eventno = None|eventtype = BINDDNSQUERY|origin = n30-hp|timestamp = 1308409014|timestampusec = 0|hostname = n30-hp|daemon = named|pid = 2513|clientip = 192.168.2.51|clientport = 44638|query = boreas.isi.edu|rrname = IN|rrtype = A|options = +|nsname = 192.168.2.54
eventno = None|eventtype = BINDDNSQUERY|origin = n30-hp|timestamp = 1308409118|timestampusec = 0|hostname = n30-hp|daemon = named|pid = 2513|clientip = 192.168.2.51|clientport = 33825|query = n30|rrname = IN|rrtype = AAAA|options = +|nsname = 192.168.2.54
eventno = None|eventtype = BINDDNSQUERY|origin = n30-hp|timestamp = 1308409156|timestampusec = 0|hostname = n30-hp|daemon = named|pid = 2513|clientip = 192.168.2.51|clientport = 51683|query = www.google.com|rrname = IN|rrtype = A|options = +|nsname = 192.168.2.54
eventno = None|eventtype = BINDDNSQUERY|origin = n30-hp|timestamp = 1308409177|timestampusec = 0|hostname = n30-hp|daemon = named|pid = 2513|clientip = 192.168.2.51|clientport = 57958|query = api.facebook.com|rrname = IN|rrtype = AAAA|options = +|nsname = 192.168.2.54
eventno = None|eventtype = BINDDNSQUERY|origin = n30-hp|timestamp = 1308409177|timestampusec = 0|hostname = n30-hp|daemon = named|pid = 2513|clientip = 192.168.2.51|clientport = 35179|query = api.facebook.com|rrname = IN|rrtype = AAAA|options = +|nsname = 192.168.2.54
eventno = None|eventtype = BINDDNSQUERY|origin = n30-hp|timestamp = 1308409177|timestampusec = 0|hostname = n30-hp|daemon = named|pid = 2513|clientip = 192.168.2.51|clientport = 59590|query = api.facebook.com|rrname = IN|rrtype = A|options = +|nsname = 192.168.2.54
eventno = None|eventtype = BINDDNSQUERY|origin = n30-hp|timestamp = 1308409179|timestampusec = 0|hostname = n30-hp|daemon = named|pid = 2513|clientip = 192.168.2.51|clientport = 52891|query = api.facebook.com|rrname = IN|rrtype = AAAA|options = +|nsname = 192.168.2.54
eventno = None|eventtype = BINDDNSQUERY|origin = n30-hp|timestamp = 1308409179|timestampusec = 0|hostname = n30-hp|daemon = named|pid = 2513|clientip = 192.168.2.51|clientport = 38559|query = api.facebook.com|rrname = IN|rrtype = AAAA|options = +|nsname = 192.168.2.54
eventno = None|eventtype = BINDDNSQUERY|origin = n30-hp|timestamp = 1308409179|timestampusec = 0|hostname = n30-hp|daemon = named|pid = 2513|clientip = 192.168.2.51|clientport = 58450|query = api.facebook.com|rrname = IN|rrtype = A|options = +|nsname = 192.168.2.54
eventno = None|eventtype = BINDDNSQUERY|origin = n30-hp|timestamp = 1308409182|timestampusec = 0|hostname = n30-hp|daemon = named|pid = 2513|clientip = 192.168.2.51|clientport = 51342|query = api.facebook.com|rrname = IN|rrtype = AAAA|options = +|nsname = 192.168.2.54
eventno = None|eventtype = BINDDNSQUERY|origin = n30-hp|timestamp = 1308409182|timestampusec = 0|hostname = n30-hp|daemon = named|pid = 2513|clientip = 192.168.2.51|clientport = 37079|query = api.facebook.com|rrname = IN|rrtype = AAAA|options = +|nsname = 192.168.2.54
eventno = None|eventtype = BINDDNSQUERY|origin = n30-hp|timestamp = 1308409182|timestampusec = 0|hostname = n30-hp|daemon = named|pid = 2513|clientip = 192.168.2.51|clientport = 50075|query = api.facebook.com|rrname = IN|rrtype = A|options = +|nsname = 192.168.2.54
eventno = None|eventtype = BINDDNSQUERY|origin = n30-hp|timestamp = 1308409183|timestampusec = 0|hostname = n30-hp|daemon = named|pid = 2513|clientip = 192.168.2.51|clientport = 40322|query = api.flickr.com|rrname = IN|rrtype = AAAA|options = +|nsname = 192.168.2.54
eventno = None|eventtype = BINDDNSQUERY|origin = n30-hp|timestamp = 1308409183|timestampusec = 0|hostname = n30-hp|daemon = named|pid = 2513|clientip = 192.168.2.51|clientport = 48014|query = api.flickr.com|rrname = IN|rrtype = A|options = +|nsname = 192.168.2.54
eventno = None|eventtype = BINDDNSQUERY|origin = n30-hp|timestamp = 1308409183|timestampusec = 0|hostname = n30-hp|daemon = named|pid = 2513|clientip = 192.168.2.51|clientport = 41033|query = api.twitter.com|rrname = IN|rrtype = AAAA|options = +|nsname = 192.168.2.54
eventno = None|eventtype = BINDDNSQUERY|origin = n30-hp|timestamp = 1308409183|timestampusec = 0|hostname = n30-hp|daemon = named|pid = 2513|clientip = 192.168.2.51|clientport = 47199|query = api.twitter.com|rrname = IN|rrtype = AAAA|options = +|nsname = 192.168.2.54
eventno = None|eventtype = BINDDNSQUERY|origin = n30-hp|timestamp = 1308409183|timestampusec = 0|hostname = n30-hp|daemon = named|pid = 2513|clientip = 192.168.2.51|clientport = 55782|query = api.twitter.com|rrname = IN|rrtype = A|options = +|nsname = 192.168.2.54
eventno = None|eventtype = BINDDNSQUERY|origin = n30-hp|timestamp = 1308409184|timestampusec = 0|hostname = n30-hp|daemon = named|pid = 2513|clientip = 192.168.2.51|clientport = 51004|query = api.twitter.com|rrname = IN|rrtype = AAAA|options = +|nsname = 192.168.2.54
eventno = None|eventtype = BINDDNSQUERY|origin = n30-hp|timestamp = 1308409184|timestampusec = 0|hostname = n30-hp|daemon = named|pid = 2513|clientip = 192.168.2.51|clientport = 33473|query = api.twitter.com|rrname = IN|rrtype = AAAA|options = +|nsname = 192.168.2.54
eventno = None|eventtype = BINDDNSQUERY|origin = n30-hp|timestamp = 1308409184|timestampusec = 0|hostname = n30-hp|daemon = named|pid = 2513|clientip = 192.168.2.51|clientport = 33656|query = api.twitter.com|rrname = IN|rrtype = A|options = +|nsname = 192.168.2.54
eventno = None|eventtype = BINDDNSQUERY|origin = n30-hp|timestamp = 1308409185|timestampusec = 0|hostname = n30-hp|daemon = named|pid = 2513|clientip = 192.168.2.51|clientport = 56619|query = api.twitter.com|rrname = IN|rrtype = AAAA|options = +|nsname = 192.168.2.54
eventno = None|eventtype = BINDDNSQUERY|origin = n30-hp|timestamp = 1308409185|timestampusec = 0|hostname = n30-hp|daemon = named|pid = 2513|clientip = 192.168.2.51|clientport = 37139|query = api.twitter.com|rrname = IN|rrtype = AAAA|options = +|nsname = 192.168.2.54
eventno = None|eventtype = BINDDNSQUERY|origin = n30-hp|timestamp = 1308409185|timestampusec = 0|hostname = n30-hp|daemon = named|pid = 2513|clientip = 192.168.2.51|clientport = 60480|query = api.twitter.com|rrname = IN|rrtype = A|options = +|nsname = 192.168.2.54
eventno = None|eventtype = BINDDNSQUERY|origin = n30-hp|timestamp = 1308409267|timestampusec = 0|hostname = n30-hp|daemon = named|pid = 2513|clientip = 192.168.2.51|clientport = 33675|query = couchdb.one.ubuntu.com|rrname = IN|rrtype = A|options = +|nsname = 192.168.2.54
eventno = None|eventtype = BINDDNSQUERY|origin = n30-hp|timestamp = 1308409268|timestampusec = 0|hostname = n30-hp|daemon = named|pid = 2513|clientip = 192.168.2.51|clientport = 58047|query = couchdb.one.ubuntu.com|rrname = IN|rrtype = A|options = +|nsname = 192.168.2.54
eventno = None|eventtype = BINDDNSQUERY|origin = n30-hp|timestamp = 1308409269|timestampusec = 0|hostname = n30-hp|daemon = named|pid = 2513|clientip = 192.168.2.51|clientport = 60781|query = couchdb.one.ubuntu.com|rrname = IN|rrtype = A|options = +|nsname = 192.168.2.54
eventno = None|eventtype = BINDDNSQUERY|origin = n30-hp|timestamp = 1308409270|timestampusec = 0|hostname = n30-hp|daemon = named|pid = 2513|clientip = 192.168.2.51|clientport = 56039|query = couchdb.one.ubuntu.com|rrname = IN|rrtype = A|options = +|nsname = 192.168.2.54
eventno = None|eventtype = BINDDNSQUERY|origin = n30-hp|timestamp = 1308409271|timestampusec = 0|hostname = n30-hp|daemon = named|pid = 2513|clientip = 192.168.2.51|clientport = 37848|query = couchdb.one.ubuntu.com|rrname = IN|rrtype = A|options = +|nsname = 192.168.2.54
eventno = None|eventtype = BINDDNSQUERY|origin = n30-hp|timestamp = 1308409272|timestampusec = 0|hostname = n30-hp|daemon = named|pid = 2513|clientip = 192.168.2.51|clientport = 56362|query = couchdb.one.ubuntu.com|rrname = IN|rrtype = A|options = +|nsname = 192.168.2.54
eventno = None|eventtype = BINDDNSQUERY|origin = n30-hp|timestamp = 1308409273|timestampusec = 0|hostname = n30-hp|daemon = named|pid = 2513|clientip = 192.168.2.51|clientport = 57767|query = couchdb.one.ubuntu.com|rrname = IN|rrtype = A|options = +|nsname = 192.168.2.54
eventno = None|eventtype = BINDDNSQUERY|origin = n30-hp|timestamp = 1308409273|timestampusec = 0|hostname = n30-hp|daemon = named|pid = 2513|clientip = 192.168.2.51|clientport = 51332|query = couchdb.one.ubuntu.com|rrname = IN|rrtype = A|options = +|nsname = 192.168.2.54
eventno = None|eventtype = BINDDNSQUERY|origin = n30-hp|timestamp = 1308409274|timestampusec = 0|hostname = n30-hp|daemon = named|pid = 2513|clientip = 192.168.2.51|clientport = 44089|query = couchdb.one.ubuntu.com|rrname = IN|rrtype = A|options = +|nsname = 192.168.2.54
eventno = None|eventtype = BINDDNSQUERY|origin = n30-hp|timestamp = 1308409275|timestampusec = 0|hostname = n30-hp|daemon = named|pid = 2513|clientip = 192.168.2.51|clientport = 60736|query = couchdb.one.ubuntu.com|rrname = IN|rrtype = A|options = +|nsname = 192.168.2.54
eventno = None|eventtype = BINDDNSQUERY|origin = n30-hp|timestamp = 1308409276|timestampusec = 0|hostname = n30-hp|daemon = named|pid = 2513|clientip = 192.168.2.51|clientport = 58765|query = couchdb.one.ubuntu.com|rrname = IN|rrtype = A|options = +|nsname = 192.168.2.54
eventno = None|eventtype = BINDDNSQUERY|origin = n30-hp|timestamp = 1308409277|timestampusec = 0|hostname = n30-hp|daemon = named|pid = 2513|clientip = 192.168.2.51|clientport = 39346|query = couchdb.one.ubuntu.com|rrname = IN|rrtype = A|options = +|nsname = 192.168.2.54
eventno = None|eventtype = BINDDNSQUERY|origin = n30-hp|timestamp = 1308409278|timestampusec = 0|hostname = n30-hp|daemon = named|pid = 2513|clientip = 192.168.2.51|clientport = 50518|query = couchdb.one.ubuntu.com|rrname = IN|rrtype = A|options = +|nsname = 192.168.2.54
eventno = None|eventtype = BINDDNSQUERY|origin = n30-hp|timestamp = 1308409336|timestampusec = 0|hostname = n30-hp|daemon = named|pid = 2513|clientip = 192.168.2.51|clientport = 45813|query = www.google.com|rrname = IN|rrtype = A|options = +|nsname = 192.168.2.54
eventno = None|eventtype = BINDDNSQUERY|origin = n30-hp|timestamp = 1308409336|timestampusec = 0|hostname = n30-hp|daemon = named|pid = 2513|clientip = 192.168.2.51|clientport = 41774|query = www.google.com|rrname = IN|rrtype = A|options = +|nsname = 192.168.2.54
eventno = None|eventtype = BINDDNSQUERY|origin = n30-hp|timestamp = 1308409356|timestampusec = 0|hostname = n30-hp|daemon = named|pid = 2513|clientip = 192.168.2.56|clientport = 52212|query = boreas.isi.edu|rrname = IN|rrtype = AAAA|options = +|nsname = 192.168.2.54
eventno = None|eventtype = BINDDNSQUERY|origin = n30-hp|timestamp = 1308409356|timestampusec = 0|hostname = n30-hp|daemon = named|pid = 2513|clientip = 192.168.2.56|clientport = 47613|query = boreas.isi.edu|rrname = IN|rrtype = AAAA|options = +|nsname = 192.168.2.54
eventno = None|eventtype = BINDDNSQUERY|origin = n30-hp|timestamp = 1308409356|timestampusec = 0|hostname = n30-hp|daemon = named|pid = 2513|clientip = 192.168.2.56|clientport = 39926|query = boreas.isi.edu|rrname = IN|rrtype = A|options = +|nsname = 192.168.2.54
eventno = None|eventtype = BINDDNSQUERY|origin = n30-hp|timestamp = 1308409477|timestampusec = 0|hostname = n30-hp|daemon = named|pid = 2513|clientip = 192.168.2.51|clientport = 49608|query = api.facebook.com|rrname = IN|rrtype = AAAA|options = +|nsname = 192.168.2.54
eventno = None|eventtype = BINDDNSQUERY|origin = n30-hp|timestamp = 1308409477|timestampusec = 0|hostname = n30-hp|daemon = named|pid = 2513|clientip = 192.168.2.51|clientport = 37496|query = api.facebook.com|rrname = IN|rrtype = AAAA|options = +|nsname = 192.168.2.54
eventno = None|eventtype = BINDDNSQUERY|origin = n30-hp|timestamp = 1308409477|timestampusec = 0|hostname = n30-hp|daemon = named|pid = 2513|clientip = 192.168.2.51|clientport = 46959|query = api.facebook.com|rrname = IN|rrtype = A|options = +|nsname = 192.168.2.54
eventno = None|eventtype = BINDDNSQUERY|origin = n30-hp|timestamp = 1308409479|timestampusec = 0|hostname = n30-hp|daemon = named|pid = 2513|clientip = 192.168.2.51|clientport = 50210|query = api.facebook.com|rrname = IN|rrtype = AAAA|options = +|nsname = 192.168.2.54
eventno = None|eventtype = BINDDNSQUERY|origin = n30-hp|timestamp = 1308409479|timestampusec = 0|hostname = n30-hp|daemon = named|pid = 2513|clientip = 192.168.2.51|clientport = 48188|query = api.facebook.com|rrname = IN|rrtype = AAAA|options = +|nsname = 192.168.2.54
eventno = None|eventtype = BINDDNSQUERY|origin = n30-hp|timestamp = 1308409479|timestampusec = 0|hostname = n30-hp|daemon = named|pid = 2513|clientip = 192.168.2.51|clientport = 48487|query = api.facebook.com|rrname = IN|rrtype = A|options = +|nsname = 192.168.2.54
eventno = None|eventtype = BINDDNSQUERY|origin = n30-hp|timestamp = 1308409481|timestampusec = 0|hostname = n30-hp|daemon = named|pid = 2513|clientip = 192.168.2.51|clientport = 59751|query = api.facebook.com|rrname = IN|rrtype = AAAA|options = +|nsname = 192.168.2.54
eventno = None|eventtype = BINDDNSQUERY|origin = n30-hp|timestamp = 1308409482|timestampusec = 0|hostname = n30-hp|daemon = named|pid = 2513|clientip = 192.168.2.51|clientport = 44245|query = api.facebook.com|rrname = IN|rrtype = AAAA|options = +|nsname = 192.168.2.54
eventno = None|eventtype = BINDDNSQUERY|origin = n30-hp|timestamp = 1308409482|timestampusec = 0|hostname = n30-hp|daemon = named|pid = 2513|clientip = 192.168.2.51|clientport = 56563|query = api.facebook.com|rrname = IN|rrtype = A|options = +|nsname = 192.168.2.54
eventno = None|eventtype = BINDDNSQUERY|origin = n30-hp|timestamp = 1308409483|timestampusec = 0|hostname = n30-hp|daemon = named|pid = 2513|clientip = 192.168.2.51|clientport = 43358|query = api.flickr.com|rrname = IN|rrtype = AAAA|options = +|nsname = 192.168.2.54
eventno = None|eventtype = BINDDNSQUERY|origin = n30-hp|timestamp = 1308409483|timestampusec = 0|hostname = n30-hp|daemon = named|pid = 2513|clientip = 192.168.2.51|clientport = 56709|query = api.flickr.com|rrname = IN|rrtype = A|options = +|nsname = 192.168.2.54
eventno = None|eventtype = BINDDNSQUERY|origin = n30-hp|timestamp = 1308409483|timestampusec = 0|hostname = n30-hp|daemon = named|pid = 2513|clientip = 192.168.2.51|clientport = 39688|query = api.twitter.com|rrname = IN|rrtype = AAAA|options = +|nsname = 192.168.2.54
eventno = None|eventtype = BINDDNSQUERY|origin = n30-hp|timestamp = 1308409483|timestampusec = 0|hostname = n30-hp|daemon = named|pid = 2513|clientip = 192.168.2.51|clientport = 41455|query = api.twitter.com|rrname = IN|rrtype = AAAA|options = +|nsname = 192.168.2.54
eventno = None|eventtype = BINDDNSQUERY|origin = n30-hp|timestamp = 1308409483|timestampusec = 0|hostname = n30-hp|daemon = named|pid = 2513|clientip = 192.168.2.51|clientport = 58927|query = api.twitter.com|rrname = IN|rrtype = A|options = +|nsname = 192.168.2.54
eventno = None|eventtype = BINDDNSQUERY|origin = n30-hp|timestamp = 1308409484|timestampusec = 0|hostname = n30-hp|daemon = named|pid = 2513|clientip = 192.168.2.51|clientport = 50378|query = api.twitter.com|rrname = IN|rrtype = AAAA|options = +|nsname = 192.168.2.54
eventno = None|eventtype = BINDDNSQUERY|origin = n30-hp|timestamp = 1308409484|timestampusec = 0|hostname = n30-hp|daemon = named|pid = 2513|clientip = 192.168.2.51|clientport = 57014|query = api.twitter.com|rrname = IN|rrtype = AAAA|options = +|nsname = 192.168.2.54
eventno = None|eventtype = BINDDNSQUERY|origin = n30-hp|timestamp = 1308409484|timestampusec = 0|hostname = n30-hp|daemon = named|pid = 2513|clientip = 192.168.2.51|clientport = 50325|query = api.twitter.com|rrname = IN|rrtype = A|options = +|nsname = 192.168.2.54
eventno = None|eventtype = BINDDNSQUERY|origin = n30-hp|timestamp = 1308409485|timestampusec = 0|hostname = n30-hp|daemon = named|pid = 2513|clientip = 192.168.2.51|clientport = 42417|query = api.twitter.com|rrname = IN|rrtype = AAAA|options = +|nsname = 192.168.2.54
eventno = None|eventtype = BINDDNSQUERY|origin = n30-hp|timestamp = 1308409485|timestampusec = 0|hostname = n30-hp|daemon = named|pid = 2513|clientip = 192.168.2.51|clientport = 59902|query = api.twitter.com|rrname = IN|rrtype = AAAA|options = +|nsname = 192.168.2.54
eventno = None|eventtype = BINDDNSQUERY|origin = n30-hp|timestamp = 1308409485|timestampusec = 0|hostname = n30-hp|daemon = named|pid = 2513|clientip = 192.168.2.51|clientport = 34172|query = api.twitter.com|rrname = IN|rrtype = A|options = +|nsname = 192.168.2.54
eventno = None|eventtype = BINDDNSQUERY|origin = n30-hp|timestamp = 1308409516|timestampusec = 0|hostname = n30-hp|daemon = named|pid = 2513|clientip = 192.168.2.51|clientport = 46381|query = www.google.com|rrname = IN|rrtype = A|options = +|nsname = 192.168.2.54
eventno = None|eventtype = BINDDNSQUERY|origin = n30-hp|timestamp = 1308409640|timestampusec = 0|hostname = n30-hp|daemon = named|pid = 2513|clientip = 192.168.2.51|clientport = 40678|query = boreas.isi.edu|rrname = IN|rrtype = A|options = +|nsname = 192.168.2.54
eventno = None|eventtype = BINDDNSQUERY|origin = n30-hp|timestamp = 1308409696|timestampusec = 0|hostname = n30-hp|daemon = named|pid = 2513|clientip = 192.168.2.51|clientport = 35368|query = www.google.com|rrname = IN|rrtype = A|options = +|nsname = 192.168.2.54
eventno = None|eventtype = BINDDNSQUERY|origin = n30-hp|timestamp = 1308409696|timestampusec = 0|hostname = n30-hp|daemon = named|pid = 2513|clientip = 192.168.2.51|clientport = 44026|query = www.google.com|rrname = IN|rrtype = A|options = +|nsname = 192.168.2.54
eventno = None|eventtype = BINDDNSQUERY|origin = n30-hp|timestamp = 1308409698|timestampusec = 0|hostname = n30-hp|daemon = named|pid = 2513|clientip = 192.168.2.58|clientport = 39060|query = www.roku.com|rrname = IN|rrtype = A|options = +|nsname = 192.168.2.54
eventno = None|eventtype = BINDDNSQUERY|origin = n30-hp|timestamp = 1308409723|timestampusec = 0|hostname = n30-hp|daemon = named|pid = 2513|clientip = 192.168.2.54|clientport = 56839|query = safebrowsing.clients.google.com|rrname = IN|rrtype = A|options = +|nsname = 192.168.2.54
eventno = None|eventtype = BINDDNSQUERY|origin = n30-hp|timestamp = 1308409723|timestampusec = 0|hostname = n30-hp|daemon = named|pid = 2513|clientip = 192.168.2.54|clientport = 57139|query = safebrowsing.clients.google.com|rrname = IN|rrtype = A|options = +T|nsname = 192.168.2.54
eventno = None|eventtype = BINDDNSQUERY|origin = n30-hp|timestamp = 1308409723|timestampusec = 0|hostname = n30-hp|daemon = named|pid = 2513|clientip = 192.168.2.54|clientport = 45766|query = safebrowsing.clients.google.com|rrname = IN|rrtype = A|options = +|nsname = 192.168.2.54
eventno = None|eventtype = BINDDNSQUERY|origin = n30-hp|timestamp = 1308409723|timestampusec = 0|hostname = n30-hp|daemon = named|pid = 2513|clientip = 192.168.2.54|clientport = 57140|query = safebrowsing.clients.google.com|rrname = IN|rrtype = A|options = +T|nsname = 192.168.2.54
eventno = None|eventtype = BINDDNSQUERY|origin = n30-hp|timestamp = 1308409723|timestampusec = 0|hostname = n30-hp|daemon = named|pid = 2513|clientip = 192.168.2.54|clientport = 34721|query = safebrowsing-cache.google.com|rrname = IN|rrtype = A|options = +|nsname = 192.168.2.54
eventno = None|eventtype = BINDDNSQUERY|origin = n30-hp|timestamp = 1308409723|timestampusec = 0|hostname = n30-hp|daemon = named|pid = 2513|clientip = 192.168.2.54|clientport = 59261|query = safebrowsing-cache.google.com|rrname = IN|rrtype = A|options = +|nsname = 192.168.2.54
eventno = None|eventtype = BINDDNSQUERY|origin = n30-hp|timestamp = 1308409737|timestampusec = 0|hostname = n30-hp|daemon = named|pid = 2513|clientip = 192.168.2.51|clientport = 48167|query = www.cs.usc.edu|rrname = IN|rrtype = A|options = +|nsname = 192.168.2.54
eventno = None|eventtype = BINDDNSQUERY|origin = n30-hp|timestamp = 1308409737|timestampusec = 0|hostname = n30-hp|daemon = named|pid = 2513|clientip = 192.168.2.51|clientport = 33562|query = www.google.com|rrname = IN|rrtype = A|options = +|nsname = 192.168.2.54
eventno = None|eventtype = BINDDNSQUERY|origin = n30-hp|timestamp = 1308409737|timestampusec = 0|hostname = n30-hp|daemon = named|pid = 2513|clientip = 192.168.2.51|clientport = 39998|query = www.google.com|rrname = IN|rrtype = A|options = +|nsname = 192.168.2.54
eventno = None|eventtype = BINDDNSQUERY|origin = n30-hp|timestamp = 1308409737|timestampusec = 0|hostname = n30-hp|daemon = named|pid = 2513|clientip = 192.168.2.51|clientport = 53028|query = www.google.com|rrname = IN|rrtype = A|options = +|nsname = 192.168.2.54
eventno = None|eventtype = BINDDNSQUERY|origin = n30-hp|timestamp = 1308409737|timestampusec = 0|hostname = n30-hp|daemon = named|pid = 2513|clientip = 192.168.2.51|clientport = 39795|query = www.google.com|rrname = IN|rrtype = A|options = +|nsname = 192.168.2.54
eventno = None|eventtype = BINDDNSQUERY|origin = n30-hp|timestamp = 1308409737|timestampusec = 0|hostname = n30-hp|daemon = named|pid = 2513|clientip = 192.168.2.51|clientport = 40097|query = www.google.com|rrname = IN|rrtype = A|options = +|nsname = 192.168.2.54
eventno = None|eventtype = BINDDNSQUERY|origin = n30-hp|timestamp = 1308409737|timestampusec = 0|hostname = n30-hp|daemon = named|pid = 2513|clientip = 192.168.2.51|clientport = 55132|query = www.google.com|rrname = IN|rrtype = A|options = +|nsname = 192.168.2.54
eventno = None|eventtype = BINDDNSQUERY|origin = n30-hp|timestamp = 1308409737|timestampusec = 0|hostname = n30-hp|daemon = named|pid = 2513|clientip = 192.168.2.51|clientport = 53345|query = www.google.com|rrname = IN|rrtype = A|options = +|nsname = 192.168.2.54
eventno = None|eventtype = BINDDNSQUERY|origin = n30-hp|timestamp = 1308409745|timestampusec = 0|hostname = n30-hp|daemon = named|pid = 2513|clientip = 192.168.2.55|clientport = 17903|query = www.google-analytics.com|rrname = IN|rrtype = A|options = +|nsname = 192.168.2.54
eventno = None|eventtype = BINDDNSQUERY|origin = n30-hp|timestamp = 1308409745|timestampusec = 0|hostname = n30-hp|daemon = named|pid = 2513|clientip = 192.168.2.55|clientport = 61233|query = www.google-analytics.com|rrname = IN|rrtype = A|options = +|nsname = 192.168.2.54
eventno = None|eventtype = BINDDNSQUERY|origin = n30-hp|timestamp = 1308409745|timestampusec = 0|hostname = n30-hp|daemon = named|pid = 2513|clientip = 192.168.2.55|clientport = 12136|query = www.google-analytics.com|rrname = IN|rrtype = A|options = +|nsname = 192.168.2.54
eventno = None|eventtype = BINDDNSQUERY|origin = n30-hp|timestamp = 1308409745|timestampusec = 0|hostname = n30-hp|daemon = named|pid = 2513|clientip = 192.168.2.55|clientport = 50633|query = www.google-analytics.com|rrname = IN|rrtype = A|options = +T|nsname = 192.168.2.54
eventno = None|eventtype = BINDDNSQUERY|origin = n30-hp|timestamp = 1308409745|timestampusec = 0|hostname = n30-hp|daemon = named|pid = 2513|clientip = 192.168.2.55|clientport = 9158|query = api.facebook.com|rrname = IN|rrtype = A|options = +|nsname = 192.168.2.54
eventno = None|eventtype = BINDDNSQUERY|origin = n30-hp|timestamp = 1308409745|timestampusec = 0|hostname = n30-hp|daemon = named|pid = 2513|clientip = 192.168.2.55|clientport = 49899|query = api.facebook.com|rrname = IN|rrtype = A|options = +|nsname = 192.168.2.54
eventno = None|eventtype = BINDDNSQUERY|origin = n30-hp|timestamp = 1308409745|timestampusec = 0|hostname = n30-hp|daemon = named|pid = 2513|clientip = 192.168.2.55|clientport = 15911|query = api.facebook.com|rrname = IN|rrtype = A|options = +|nsname = 192.168.2.54
eventno = None|eventtype = BINDDNSQUERY|origin = n30-hp|timestamp = 1308409777|timestampusec = 0|hostname = n30-hp|daemon = named|pid = 2513|clientip = 192.168.2.51|clientport = 40567|query = api.facebook.com|rrname = IN|rrtype = AAAA|options = +|nsname = 192.168.2.54
eventno = None|eventtype = BINDDNSQUERY|origin = n30-hp|timestamp = 1308409777|timestampusec = 0|hostname = n30-hp|daemon = named|pid = 2513|clientip = 192.168.2.51|clientport = 53134|query = api.facebook.com|rrname = IN|rrtype = AAAA|options = +|nsname = 192.168.2.54
eventno = None|eventtype = BINDDNSQUERY|origin = n30-hp|timestamp = 1308409777|timestampusec = 0|hostname = n30-hp|daemon = named|pid = 2513|clientip = 192.168.2.51|clientport = 34637|query = api.facebook.com|rrname = IN|rrtype = A|options = +|nsname = 192.168.2.54
eventno = None|eventtype = BINDDNSQUERY|origin = n30-hp|timestamp = 1308409780|timestampusec = 0|hostname = n30-hp|daemon = named|pid = 2513|clientip = 192.168.2.51|clientport = 35254|query = api.facebook.com|rrname = IN|rrtype = AAAA|options = +|nsname = 192.168.2.54
eventno = None|eventtype = BINDDNSQUERY|origin = n30-hp|timestamp = 1308409780|timestampusec = 0|hostname = n30-hp|daemon = named|pid = 2513|clientip = 192.168.2.51|clientport = 36568|query = api.facebook.com|rrname = IN|rrtype = AAAA|options = +|nsname = 192.168.2.54
eventno = None|eventtype = BINDDNSQUERY|origin = n30-hp|timestamp = 1308409780|timestampusec = 0|hostname = n30-hp|daemon = named|pid = 2513|clientip = 192.168.2.51|clientport = 33079|query = api.facebook.com|rrname = IN|rrtype = A|options = +|nsname = 192.168.2.54
eventno = None|eventtype = BINDDNSQUERY|origin = n30-hp|timestamp = 1308409782|timestampusec = 0|hostname = n30-hp|daemon = named|pid = 2513|clientip = 192.168.2.51|clientport = 41027|query = api.facebook.com|rrname = IN|rrtype = AAAA|options = +|nsname = 192.168.2.54
eventno = None|eventtype = BINDDNSQUERY|origin = n30-hp|timestamp = 1308409783|timestampusec = 0|hostname = n30-hp|daemon = named|pid = 2513|clientip = 192.168.2.51|clientport = 53917|query = api.facebook.com|rrname = IN|rrtype = AAAA|options = +|nsname = 192.168.2.54
eventno = None|eventtype = BINDDNSQUERY|origin = n30-hp|timestamp = 1308409783|timestampusec = 0|hostname = n30-hp|daemon = named|pid = 2513|clientip = 192.168.2.51|clientport = 58471|query = api.facebook.com|rrname = IN|rrtype = A|options = +|nsname = 192.168.2.54
eventno = None|eventtype = BINDDNSQUERY|origin = n30-hp|timestamp = 1308409784|timestampusec = 0|hostname = n30-hp|daemon = named|pid = 2513|clientip = 192.168.2.51|clientport = 41496|query = api.flickr.com|rrname = IN|rrtype = AAAA|options = +|nsname = 192.168.2.54
eventno = None|eventtype = BINDDNSQUERY|origin = n30-hp|timestamp = 1308409784|timestampusec = 0|hostname = n30-hp|daemon = named|pid = 2513|clientip = 192.168.2.51|clientport = 53108|query = api.flickr.com|rrname = IN|rrtype = A|options = +|nsname = 192.168.2.54
eventno = None|eventtype = BINDDNSQUERY|origin = n30-hp|timestamp = 1308409784|timestampusec = 0|hostname = n30-hp|daemon = named|pid = 2513|clientip = 192.168.2.51|clientport = 50298|query = api.twitter.com|rrname = IN|rrtype = AAAA|options = +|nsname = 192.168.2.54
eventno = None|eventtype = BINDDNSQUERY|origin = n30-hp|timestamp = 1308409784|timestampusec = 0|hostname = n30-hp|daemon = named|pid = 2513|clientip = 192.168.2.51|clientport = 44081|query = api.twitter.com|rrname = IN|rrtype = AAAA|options = +|nsname = 192.168.2.54
eventno = None|eventtype = BINDDNSQUERY|origin = n30-hp|timestamp = 1308409784|timestampusec = 0|hostname = n30-hp|daemon = named|pid = 2513|clientip = 192.168.2.51|clientport = 41254|query = api.twitter.com|rrname = IN|rrtype = A|options = +|nsname = 192.168.2.54
eventno = None|eventtype = BINDDNSQUERY|origin = n30-hp|timestamp = 1308409785|timestampusec = 0|hostname = n30-hp|daemon = named|pid = 2513|clientip = 192.168.2.51|clientport = 34842|query = api.twitter.com|rrname = IN|rrtype = AAAA|options = +|nsname = 192.168.2.54
eventno = None|eventtype = BINDDNSQUERY|origin = n30-hp|timestamp = 1308409785|timestampusec = 0|hostname = n30-hp|daemon = named|pid = 2513|clientip = 192.168.2.51|clientport = 51930|query = api.twitter.com|rrname = IN|rrtype = AAAA|options = +|nsname = 192.168.2.54
eventno = None|eventtype = BINDDNSQUERY|origin = n30-hp|timestamp = 1308409785|timestampusec = 0|hostname = n30-hp|daemon = named|pid = 2513|clientip = 192.168.2.51|clientport = 33516|query = api.twitter.com|rrname = IN|rrtype = A|options = +|nsname = 192.168.2.54
eventno = None|eventtype = BINDDNSQUERY|origin = n30-hp|timestamp = 1308409786|timestampusec = 0|hostname = n30-hp|daemon = named|pid = 2513|clientip = 192.168.2.51|clientport = 41319|query = api.twitter.com|rrname = IN|rrtype = AAAA|options = +|nsname = 192.168.2.54
eventno = None|eventtype = BINDDNSQUERY|origin = n30-hp|timestamp = 1308409786|timestampusec = 0|hostname = n30-hp|daemon = named|pid = 2513|clientip = 192.168.2.51|clientport = 59330|query = api.twitter.com|rrname = IN|rrtype = AAAA|options = +|nsname = 192.168.2.54
eventno = None|eventtype = BINDDNSQUERY|origin = n30-hp|timestamp = 1308409786|timestampusec = 0|hostname = n30-hp|daemon = named|pid = 2513|clientip = 192.168.2.51|clientport = 46521|query = api.twitter.com|rrname = IN|rrtype = A|options = +|nsname = 192.168.2.54
eventno = None|eventtype = BINDDNSQUERY|origin = n30-hp|timestamp = 1308409836|timestampusec = 0|hostname = n30-hp|daemon = named|pid = 2513|clientip = 192.168.2.56|clientport = 43481|query = safebrowsing.clients.google.com|rrname = IN|rrtype = A|options = +|nsname = 192.168.2.54
eventno = None|eventtype = BINDDNSQUERY|origin = n30-hp|timestamp = 1308409836|timestampusec = 0|hostname = n30-hp|daemon = named|pid = 2513|clientip = 192.168.2.56|clientport = 37628|query = safebrowsing.clients.google.com|rrname = IN|rrtype = A|options = +T|nsname = 192.168.2.54
eventno = None|eventtype = BINDDNSQUERY|origin = n30-hp|timestamp = 1308409836|timestampusec = 0|hostname = n30-hp|daemon = named|pid = 2513|clientip = 192.168.2.56|clientport = 42130|query = safebrowsing.clients.google.com|rrname = IN|rrtype = A|options = +|nsname = 192.168.2.54
eventno = None|eventtype = BINDDNSQUERY|origin = n30-hp|timestamp = 1308409836|timestampusec = 0|hostname = n30-hp|daemon = named|pid = 2513|clientip = 192.168.2.56|clientport = 37629|query = safebrowsing.clients.google.com|rrname = IN|rrtype = A|options = +T|nsname = 192.168.2.54
eventno = None|eventtype = BINDDNSQUERY|origin = n30-hp|timestamp = 1308409836|timestampusec = 0|hostname = n30-hp|daemon = named|pid = 2513|clientip = 192.168.2.56|clientport = 60365|query = safebrowsing-cache.google.com|rrname = IN|rrtype = A|options = +|nsname = 192.168.2.54
eventno = None|eventtype = BINDDNSQUERY|origin = n30-hp|timestamp = 1308409836|timestampusec = 0|hostname = n30-hp|daemon = named|pid = 2513|clientip = 192.168.2.56|clientport = 50661|query = safebrowsing-cache.google.com|rrname = IN|rrtype = A|options = +|nsname = 192.168.2.54
eventno = None|eventtype = BINDDNSQUERY|origin = n30-hp|timestamp = 1308409867|timestampusec = 0|hostname = n30-hp|daemon = named|pid = 2513|clientip = 192.168.2.51|clientport = 57368|query = couchdb.one.ubuntu.com|rrname = IN|rrtype = A|options = +|nsname = 192.168.2.54
eventno = None|eventtype = BINDDNSQUERY|origin = n30-hp|timestamp = 1308409868|timestampusec = 0|hostname = n30-hp|daemon = named|pid = 2513|clientip = 192.168.2.51|clientport = 34645|query = couchdb.one.ubuntu.com|rrname = IN|rrtype = A|options = +|nsname = 192.168.2.54
eventno = None|eventtype = BINDDNSQUERY|origin = n30-hp|timestamp = 1308409869|timestampusec = 0|hostname = n30-hp|daemon = named|pid = 2513|clientip = 192.168.2.51|clientport = 38842|query = couchdb.one.ubuntu.com|rrname = IN|rrtype = A|options = +|nsname = 192.168.2.54
eventno = None|eventtype = BINDDNSQUERY|origin = n30-hp|timestamp = 1308409870|timestampusec = 0|hostname = n30-hp|daemon = named|pid = 2513|clientip = 192.168.2.51|clientport = 50487|query = couchdb.one.ubuntu.com|rrname = IN|rrtype = A|options = +|nsname = 192.168.2.54
eventno = None|eventtype = BINDDNSQUERY|origin = n30-hp|timestamp = 1308409871|timestampusec = 0|hostname = n30-hp|daemon = named|pid = 2513|clientip = 192.168.2.51|clientport = 55358|query = couchdb.one.ubuntu.com|rrname = IN|rrtype = A|options = +|nsname = 192.168.2.54
eventno = None|eventtype = BINDDNSQUERY|origin = n30-hp|timestamp = 1308409872|timestampusec = 0|hostname = n30-hp|daemon = named|pid = 2513|clientip = 192.168.2.51|clientport = 34255|query = couchdb.one.ubuntu.com|rrname = IN|rrtype = A|options = +|nsname = 192.168.2.54
eventno = None|eventtype = BINDDNSQUERY|origin = n30-hp|timestamp = 1308409873|timestampusec = 0|hostname = n30-hp|daemon = named|pid = 2513|clientip = 192.168.2.51|clientport = 49865|query = couchdb.one.ubuntu.com|rrname = IN|rrtype = A|options = +|nsname = 192.168.2.54
eventno = None|eventtype = BINDDNSQUERY|origin = n30-hp|timestamp = 1308409873|timestampusec = 0|hostname = n30-hp|daemon = named|pid = 2513|clientip = 192.168.2.51|clientport = 58986|query = couchdb.one.ubuntu.com|rrname = IN|rrtype = A|options = +|nsname = 192.168.2.54
eventno = None|eventtype = BINDDNSQUERY|origin = n30-hp|timestamp = 1308409874|timestampusec = 0|hostname = n30-hp|daemon = named|pid = 2513|clientip = 192.168.2.51|clientport = 40874|query = couchdb.one.ubuntu.com|rrname = IN|rrtype = A|options = +|nsname = 192.168.2.54
eventno = None|eventtype = BINDDNSQUERY|origin = n30-hp|timestamp = 1308409875|timestampusec = 0|hostname = n30-hp|daemon = named|pid = 2513|clientip = 192.168.2.51|clientport = 33954|query = couchdb.one.ubuntu.com|rrname = IN|rrtype = A|options = +|nsname = 192.168.2.54
eventno = None|eventtype = BINDDNSQUERY|origin = n30-hp|timestamp = 1308409876|timestampusec = 0|hostname = n30-hp|daemon = named|pid = 2513|clientip = 192.168.2.51|clientport = 36605|query = couchdb.one.ubuntu.com|rrname = IN|rrtype = A|options = +|nsname = 192.168.2.54
eventno = None|eventtype = BINDDNSQUERY|origin = n30-hp|timestamp = 1308409876|timestampusec = 0|hostname = n30-hp|daemon = named|pid = 2513|clientip = 192.168.2.51|clientport = 49771|query = www.google.com|rrname = IN|rrtype = A|options = +|nsname = 192.168.2.54
eventno = None|eventtype = BINDDNSQUERY|origin = n30-hp|timestamp = 1308409877|timestampusec = 0|hostname = n30-hp|daemon = named|pid = 2513|clientip = 192.168.2.51|clientport = 53537|query = couchdb.one.ubuntu.com|rrname = IN|rrtype = A|options = +|nsname = 192.168.2.54
eventno = None|eventtype = BINDDNSQUERY|origin = n30-hp|timestamp = 1308409878|timestampusec = 0|hostname = n30-hp|daemon = named|pid = 2513|clientip = 192.168.2.51|clientport = 45211|query = couchdb.one.ubuntu.com|rrname = IN|rrtype = A|options = +|nsname = 192.168.2.54
eventno = None|eventtype = BINDDNSQUERY|origin = n30-hp|timestamp = 1308409922|timestampusec = 0|hostname = n30-hp|daemon = named|pid = 2513|clientip = 192.168.2.56|clientport = 46113|query = boreas.isi.edu|rrname = IN|rrtype = AAAA|options = +|nsname = 192.168.2.54
eventno = None|eventtype = BINDDNSQUERY|origin = n30-hp|timestamp = 1308409922|timestampusec = 0|hostname = n30-hp|daemon = named|pid = 2513|clientip = 192.168.2.56|clientport = 51452|query = boreas.isi.edu|rrname = IN|rrtype = AAAA|options = +|nsname = 192.168.2.54
eventno = None|eventtype = BINDDNSQUERY|origin = n30-hp|timestamp = 1308409922|timestampusec = 0|hostname = n30-hp|daemon = named|pid = 2513|clientip = 192.168.2.56|clientport = 48923|query = boreas.isi.edu|rrname = IN|rrtype = A|options = +|nsname = 192.168.2.54
eventno = None|eventtype = BINDDNSQUERY|origin = n30-hp|timestamp = 1308409937|timestampusec = 0|hostname = n30-hp|daemon = named|pid = 2513|clientip = 192.168.2.55|clientport = 60566|query = www.google.com|rrname = IN|rrtype = A|options = +|nsname = 192.168.2.54
eventno = None|eventtype = BINDDNSQUERY|origin = n30-hp|timestamp = 1308409945|timestampusec = 0|hostname = n30-hp|daemon = named|pid = 2513|clientip = 192.168.2.56|clientport = 59325|query = images.em.bankofamerica.com|rrname = IN|rrtype = AAAA|options = +|nsname = 192.168.2.54
eventno = None|eventtype = BINDDNSQUERY|origin = n30-hp|timestamp = 1308409945|timestampusec = 0|hostname = n30-hp|daemon = named|pid = 2513|clientip = 192.168.2.56|clientport = 59543|query = fls.doubleclick.net|rrname = IN|rrtype = AAAA|options = +|nsname = 192.168.2.54
eventno = None|eventtype = BINDDNSQUERY|origin = n30-hp|timestamp = 1308409945|timestampusec = 0|hostname = n30-hp|daemon = named|pid = 2513|clientip = 192.168.2.56|clientport = 58512|query = click.ealerts.bankofamerica.com|rrname = IN|rrtype = AAAA|options = +|nsname = 192.168.2.54
eventno = None|eventtype = BINDDNSQUERY|origin = n30-hp|timestamp = 1308409945|timestampusec = 0|hostname = n30-hp|daemon = named|pid = 2513|clientip = 192.168.2.56|clientport = 45928|query = fls.doubleclick.net|rrname = IN|rrtype = A|options = +|nsname = 192.168.2.54
eventno = None|eventtype = BINDDNSQUERY|origin = n30-hp|timestamp = 1308409945|timestampusec = 0|hostname = n30-hp|daemon = named|pid = 2513|clientip = 192.168.2.56|clientport = 42213|query = images.em.bankofamerica.com|rrname = IN|rrtype = AAAA|options = +|nsname = 192.168.2.54
eventno = None|eventtype = BINDDNSQUERY|origin = n30-hp|timestamp = 1308409945|timestampusec = 0|hostname = n30-hp|daemon = named|pid = 2513|clientip = 192.168.2.56|clientport = 33600|query = click.ealerts.bankofamerica.com|rrname = IN|rrtype = A|options = +|nsname = 192.168.2.54
eventno = None|eventtype = BINDDNSQUERY|origin = n30-hp|timestamp = 1308409946|timestampusec = 0|hostname = n30-hp|daemon = named|pid = 2513|clientip = 192.168.2.56|clientport = 52888|query = images.em.bankofamerica.com|rrname = IN|rrtype = A|options = +|nsname = 192.168.2.54
Unable to parse 'Jun 18 08:12:26 n30-hp named[2513]: client 192.168.2.1#9218: query: images.em.bankofamerica.com IN A +ED (192.168.2.54)' (0 chars parsed of 119),returned value was (0, [], 0)
None
eventno = None|eventtype = BINDDNSQUERY|origin = n30-hp|timestamp = 1308409951|timestampusec = 0|hostname = n30-hp|daemon = named|pid = 2513|clientip = 192.168.2.56|clientport = 41274|query = ot1.geeks.com|rrname = IN|rrtype = AAAA|options = +|nsname = 192.168.2.54
eventno = None|eventtype = BINDDNSQUERY|origin = n30-hp|timestamp = 1308409951|timestampusec = 0|hostname = n30-hp|daemon = named|pid = 2513|clientip = 192.168.2.56|clientport = 46919|query = www.geeks.com|rrname = IN|rrtype = AAAA|options = +|nsname = 192.168.2.54
eventno = None|eventtype = BINDDNSQUERY|origin = n30-hp|timestamp = 1308409951|timestampusec = 0|hostname = n30-hp|daemon = named|pid = 2513|clientip = 192.168.2.56|clientport = 54273|query = ot1.geeks.com|rrname = IN|rrtype = AAAA|options = +|nsname = 192.168.2.54
eventno = None|eventtype = BINDDNSQUERY|origin = n30-hp|timestamp = 1308409952|timestampusec = 0|hostname = n30-hp|daemon = named|pid = 2513|clientip = 192.168.2.56|clientport = 46520|query = ot1.geeks.com|rrname = IN|rrtype = A|options = +|nsname = 192.168.2.54
eventno = None|eventtype = BINDDNSQUERY|origin = n30-hp|timestamp = 1308409952|timestampusec = 0|hostname = n30-hp|daemon = named|pid = 2513|clientip = 192.168.2.56|clientport = 54104|query = www.geeks.com|rrname = IN|rrtype = A|options = +|nsname = 192.168.2.54
eventno = None|eventtype = BINDDNSQUERY|origin = n30-hp|timestamp = 1308409965|timestampusec = 0|hostname = n30-hp|daemon = named|pid = 2513|clientip = 192.168.2.56|clientport = 34535|query = fxfeeds.mozilla.com|rrname = IN|rrtype = A|options = +|nsname = 192.168.2.54
eventno = None|eventtype = BINDDNSQUERY|origin = n30-hp|timestamp = 1308409965|timestampusec = 0|hostname = n30-hp|daemon = named|pid = 2513|clientip = 192.168.2.56|clientport = 56310|query = newsrss.bbc.co.uk|rrname = IN|rrtype = A|options = +|nsname = 192.168.2.54
eventno = None|eventtype = BINDDNSQUERY|origin = n30-hp|timestamp = 1308409965|timestampusec = 0|hostname = n30-hp|daemon = named|pid = 2513|clientip = 192.168.2.56|clientport = 60204|query = newsrss.bbc.co.uk|rrname = IN|rrtype = A|options = +|nsname = 192.168.2.54
eventno = None|eventtype = BINDDNSQUERY|origin = n30-hp|timestamp = 1308409965|timestampusec = 0|hostname = n30-hp|daemon = named|pid = 2513|clientip = 192.168.2.56|clientport = 38826|query = feeds.bbci.co.uk|rrname = IN|rrtype = A|options = +|nsname = 192.168.2.54
eventno = None|eventtype = BINDDNSQUERY|origin = n30-hp|timestamp = 1308409965|timestampusec = 0|hostname = n30-hp|daemon = named|pid = 2513|clientip = 192.168.2.56|clientport = 41386|query = feeds.bbci.co.uk|rrname = IN|rrtype = A|options = +|nsname = 192.168.2.54
eventno = None|eventtype = BINDDNSQUERY|origin = n30-hp|timestamp = 1308410000|timestampusec = 0|hostname = n30-hp|daemon = named|pid = 2513|clientip = 192.168.2.56|clientport = 59375|query = thirdeye.isi.deterlab.net|rrname = IN|rrtype = AAAA|options = +|nsname = 192.168.2.54
eventno = None|eventtype = BINDDNSQUERY|origin = n30-hp|timestamp = 1308410001|timestampusec = 0|hostname = n30-hp|daemon = named|pid = 2513|clientip = 192.168.2.56|clientport = 44021|query = thirdeye.isi.deterlab.net|rrname = IN|rrtype = A|options = +|nsname = 192.168.2.54
eventno = None|eventtype = BINDDNSQUERY|origin = n30-hp|timestamp = 1308410003|timestampusec = 0|hostname = n30-hp|daemon = named|pid = 2513|clientip = 192.168.2.56|clientport = 40090|query = imap.gmail.com|rrname = IN|rrtype = AAAA|options = +|nsname = 192.168.2.54
eventno = None|eventtype = BINDDNSQUERY|origin = n30-hp|timestamp = 1308410003|timestampusec = 0|hostname = n30-hp|daemon = named|pid = 2513|clientip = 192.168.2.56|clientport = 33357|query = imap.gmail.com|rrname = IN|rrtype = A|options = +|nsname = 192.168.2.54
eventno = None|eventtype = BINDDNSQUERY|origin = n30-hp|timestamp = 1308410012|timestampusec = 0|hostname = n30-hp|daemon = named|pid = 2513|clientip = 192.168.2.56|clientport = 43525|query = sherlock.isi.deterlab.net|rrname = IN|rrtype = A|options = +|nsname = 192.168.2.54
eventno = None|eventtype = BINDDNSQUERY|origin = n30-hp|timestamp = 1308410012|timestampusec = 0|hostname = n30-hp|daemon = named|pid = 2513|clientip = 192.168.2.56|clientport = 41679|query = sherlock.isi.deterlab.net|rrname = IN|rrtype = A|options = +|nsname = 192.168.2.54
eventno = None|eventtype = BINDDNSQUERY|origin = n30-hp|timestamp = 1308410013|timestampusec = 0|hostname = n30-hp|daemon = named|pid = 2513|clientip = 192.168.2.56|clientport = 53201|query = sherlock.isi.deterlab.net|rrname = IN|rrtype = A|options = +|nsname = 192.168.2.54
eventno = None|eventtype = BINDDNSQUERY|origin = n30-hp|timestamp = 1308410013|timestampusec = 0|hostname = n30-hp|daemon = named|pid = 2513|clientip = 192.168.2.56|clientport = 57998|query = thirdeye.isi.deterlab.net|rrname = IN|rrtype = A|options = +|nsname = 192.168.2.54
eventno = None|eventtype = BINDDNSQUERY|origin = n30-hp|timestamp = 1308410013|timestampusec = 0|hostname = n30-hp|daemon = named|pid = 2513|clientip = 192.168.2.56|clientport = 35373|query = trac.edgewall.org|rrname = IN|rrtype = A|options = +|nsname = 192.168.2.54
eventno = None|eventtype = BINDDNSQUERY|origin = n30-hp|timestamp = 1308410013|timestampusec = 0|hostname = n30-hp|daemon = named|pid = 2513|clientip = 192.168.2.56|clientport = 56653|query = www.edgewall.org|rrname = IN|rrtype = A|options = +|nsname = 192.168.2.54
eventno = None|eventtype = BINDDNSQUERY|origin = n30-hp|timestamp = 1308410013|timestampusec = 0|hostname = n30-hp|daemon = named|pid = 2513|clientip = 192.168.2.56|clientport = 56905|query = thirdeye.isi.deterlab.net|rrname = IN|rrtype = A|options = +|nsname = 192.168.2.54
eventno = None|eventtype = BINDDNSQUERY|origin = n30-hp|timestamp = 1308410043|timestampusec = 0|hostname = n30-hp|daemon = named|pid = 2513|clientip = 192.168.2.56|clientport = 40743|query = sherlock.isi.deterlab.net|rrname = IN|rrtype = A|options = +|nsname = 192.168.2.54
eventno = None|eventtype = BINDDNSQUERY|origin = n30-hp|timestamp = 1308410043|timestampusec = 0|hostname = n30-hp|daemon = named|pid = 2513|clientip = 192.168.2.56|clientport = 42280|query = sherlock.isi.deterlab.net|rrname = IN|rrtype = A|options = +|nsname = 192.168.2.54
eventno = None|eventtype = BINDDNSQUERY|origin = n30-hp|timestamp = 1308410053|timestampusec = 0|hostname = n30-hp|daemon = named|pid = 2513|clientip = 192.168.2.56|clientport = 38985|query = box334.bluehost.com|rrname = IN|rrtype = AAAA|options = +|nsname = 192.168.2.54
eventno = None|eventtype = BINDDNSQUERY|origin = n30-hp|timestamp = 1308410053|timestampusec = 0|hostname = n30-hp|daemon = named|pid = 2513|clientip = 192.168.2.56|clientport = 39217|query = box334.bluehost.com|rrname = IN|rrtype = AAAA|options = +|nsname = 192.168.2.54
eventno = None|eventtype = BINDDNSQUERY|origin = n30-hp|timestamp = 1308410053|timestampusec = 0|hostname = n30-hp|daemon = named|pid = 2513|clientip = 192.168.2.56|clientport = 50810|query = box334.bluehost.com|rrname = IN|rrtype = A|options = +|nsname = 192.168.2.54
eventno = None|eventtype = BINDDNSQUERY|origin = n30-hp|timestamp = 1308410056|timestampusec = 0|hostname = n30-hp|daemon = named|pid = 2513|clientip = 192.168.2.51|clientport = 55028|query = www.google.com|rrname = IN|rrtype = A|options = +|nsname = 192.168.2.54
eventno = None|eventtype = BINDDNSQUERY|origin = n30-hp|timestamp = 1308410056|timestampusec = 0|hostname = n30-hp|daemon = named|pid = 2513|clientip = 192.168.2.51|clientport = 38923|query = www.google.com|rrname = IN|rrtype = A|options = +|nsname = 192.168.2.54
eventno = None|eventtype = BINDDNSQUERY|origin = n30-hp|timestamp = 1308410062|timestampusec = 0|hostname = n30-hp|daemon = named|pid = 2513|clientip = 192.168.2.56|clientport = 38144|query = sherlock.isi.deterlab.net|rrname = IN|rrtype = A|options = +|nsname = 192.168.2.54
eventno = None|eventtype = BINDDNSQUERY|origin = n30-hp|timestamp = 1308410077|timestampusec = 0|hostname = n30-hp|daemon = named|pid = 2513|clientip = 192.168.2.51|clientport = 53777|query = api.facebook.com|rrname = IN|rrtype = AAAA|options = +|nsname = 192.168.2.54
eventno = None|eventtype = BINDDNSQUERY|origin = n30-hp|timestamp = 1308410077|timestampusec = 0|hostname = n30-hp|daemon = named|pid = 2513|clientip = 192.168.2.51|clientport = 48871|query = api.facebook.com|rrname = IN|rrtype = AAAA|options = +|nsname = 192.168.2.54
eventno = None|eventtype = BINDDNSQUERY|origin = n30-hp|timestamp = 1308410077|timestampusec = 0|hostname = n30-hp|daemon = named|pid = 2513|clientip = 192.168.2.51|clientport = 39920|query = api.facebook.com|rrname = IN|rrtype = A|options = +|nsname = 192.168.2.54
eventno = None|eventtype = BINDDNSQUERY|origin = n30-hp|timestamp = 1308410080|timestampusec = 0|hostname = n30-hp|daemon = named|pid = 2513|clientip = 192.168.2.51|clientport = 45422|query = api.facebook.com|rrname = IN|rrtype = AAAA|options = +|nsname = 192.168.2.54
eventno = None|eventtype = BINDDNSQUERY|origin = n30-hp|timestamp = 1308410080|timestampusec = 0|hostname = n30-hp|daemon = named|pid = 2513|clientip = 192.168.2.51|clientport = 36000|query = api.facebook.com|rrname = IN|rrtype = AAAA|options = +|nsname = 192.168.2.54
eventno = None|eventtype = BINDDNSQUERY|origin = n30-hp|timestamp = 1308410080|timestampusec = 0|hostname = n30-hp|daemon = named|pid = 2513|clientip = 192.168.2.51|clientport = 38298|query = api.facebook.com|rrname = IN|rrtype = A|options = +|nsname = 192.168.2.54
eventno = None|eventtype = BINDDNSQUERY|origin = n30-hp|timestamp = 1308410080|timestampusec = 0|hostname = n30-hp|daemon = named|pid = 2513|clientip = 192.168.2.56|clientport = 56748|query = sherlock.isi.deterlab.net|rrname = IN|rrtype = A|options = +|nsname = 192.168.2.54
eventno = None|eventtype = BINDDNSQUERY|origin = n30-hp|timestamp = 1308410081|timestampusec = 0|hostname = n30-hp|daemon = named|pid = 2513|clientip = 192.168.2.56|clientport = 48202|query = sherlock.isi.deterlab.net|rrname = IN|rrtype = A|options = +|nsname = 192.168.2.54
eventno = None|eventtype = BINDDNSQUERY|origin = n30-hp|timestamp = 1308410081|timestampusec = 0|hostname = n30-hp|daemon = named|pid = 2513|clientip = 192.168.2.56|clientport = 36420|query = sherlock.isi.deterlab.net|rrname = IN|rrtype = A|options = +|nsname = 192.168.2.54
eventno = None|eventtype = BINDDNSQUERY|origin = n30-hp|timestamp = 1308410082|timestampusec = 0|hostname = n30-hp|daemon = named|pid = 2513|clientip = 192.168.2.51|clientport = 47262|query = api.facebook.com|rrname = IN|rrtype = AAAA|options = +|nsname = 192.168.2.54
eventno = None|eventtype = BINDDNSQUERY|origin = n30-hp|timestamp = 1308410082|timestampusec = 0|hostname = n30-hp|daemon = named|pid = 2513|clientip = 192.168.2.51|clientport = 35306|query = api.facebook.com|rrname = IN|rrtype = AAAA|options = +|nsname = 192.168.2.54
eventno = None|eventtype = BINDDNSQUERY|origin = n30-hp|timestamp = 1308410082|timestampusec = 0|hostname = n30-hp|daemon = named|pid = 2513|clientip = 192.168.2.51|clientport = 43779|query = api.facebook.com|rrname = IN|rrtype = A|options = +|nsname = 192.168.2.54
eventno = None|eventtype = BINDDNSQUERY|origin = n30-hp|timestamp = 1308410084|timestampusec = 0|hostname = n30-hp|daemon = named|pid = 2513|clientip = 192.168.2.51|clientport = 49762|query = api.flickr.com|rrname = IN|rrtype = AAAA|options = +|nsname = 192.168.2.54
eventno = None|eventtype = BINDDNSQUERY|origin = n30-hp|timestamp = 1308410084|timestampusec = 0|hostname = n30-hp|daemon = named|pid = 2513|clientip = 192.168.2.51|clientport = 35084|query = api.flickr.com|rrname = IN|rrtype = A|options = +|nsname = 192.168.2.54
eventno = None|eventtype = BINDDNSQUERY|origin = n30-hp|timestamp = 1308410084|timestampusec = 0|hostname = n30-hp|daemon = named|pid = 2513|clientip = 192.168.2.51|clientport = 56743|query = api.twitter.com|rrname = IN|rrtype = AAAA|options = +|nsname = 192.168.2.54
eventno = None|eventtype = BINDDNSQUERY|origin = n30-hp|timestamp = 1308410084|timestampusec = 0|hostname = n30-hp|daemon = named|pid = 2513|clientip = 192.168.2.51|clientport = 50828|query = api.twitter.com|rrname = IN|rrtype = AAAA|options = +|nsname = 192.168.2.54
eventno = None|eventtype = BINDDNSQUERY|origin = n30-hp|timestamp = 1308410084|timestampusec = 0|hostname = n30-hp|daemon = named|pid = 2513|clientip = 192.168.2.51|clientport = 51698|query = api.twitter.com|rrname = IN|rrtype = A|options = +|nsname = 192.168.2.54
eventno = None|eventtype = BINDDNSQUERY|origin = n30-hp|timestamp = 1308410085|timestampusec = 0|hostname = n30-hp|daemon = named|pid = 2513|clientip = 192.168.2.51|clientport = 57696|query = api.twitter.com|rrname = IN|rrtype = AAAA|options = +|nsname = 192.168.2.54
eventno = None|eventtype = BINDDNSQUERY|origin = n30-hp|timestamp = 1308410085|timestampusec = 0|hostname = n30-hp|daemon = named|pid = 2513|clientip = 192.168.2.51|clientport = 42457|query = api.twitter.com|rrname = IN|rrtype = AAAA|options = +|nsname = 192.168.2.54
eventno = None|eventtype = BINDDNSQUERY|origin = n30-hp|timestamp = 1308410085|timestampusec = 0|hostname = n30-hp|daemon = named|pid = 2513|clientip = 192.168.2.51|clientport = 59263|query = api.twitter.com|rrname = IN|rrtype = A|options = +|nsname = 192.168.2.54
eventno = None|eventtype = BINDDNSQUERY|origin = n30-hp|timestamp = 1308410085|timestampusec = 0|hostname = n30-hp|daemon = named|pid = 2513|clientip = 192.168.2.51|clientport = 54355|query = api.twitter.com|rrname = IN|rrtype = AAAA|options = +|nsname = 192.168.2.54
eventno = None|eventtype = BINDDNSQUERY|origin = n30-hp|timestamp = 1308410085|timestampusec = 0|hostname = n30-hp|daemon = named|pid = 2513|clientip = 192.168.2.51|clientport = 43757|query = api.twitter.com|rrname = IN|rrtype = AAAA|options = +|nsname = 192.168.2.54
eventno = None|eventtype = BINDDNSQUERY|origin = n30-hp|timestamp = 1308410085|timestampusec = 0|hostname = n30-hp|daemon = named|pid = 2513|clientip = 192.168.2.51|clientport = 42114|query = api.twitter.com|rrname = IN|rrtype = A|options = +|nsname = 192.168.2.54
eventno = None|eventtype = BINDDNSQUERY|origin = n30-hp|timestamp = 1308410099|timestampusec = 0|hostname = n30-hp|daemon = named|pid = 2513|clientip = 192.168.2.56|clientport = 39010|query = suggestqueries.google.com|rrname = IN|rrtype = A|options = +|nsname = 192.168.2.54
eventno = None|eventtype = BINDDNSQUERY|origin = n30-hp|timestamp = 1308410099|timestampusec = 0|hostname = n30-hp|daemon = named|pid = 2513|clientip = 192.168.2.56|clientport = 44272|query = suggestqueries.google.com|rrname = IN|rrtype = A|options = +T|nsname = 192.168.2.54
eventno = None|eventtype = BINDDNSQUERY|origin = n30-hp|timestamp = 1308410099|timestampusec = 0|hostname = n30-hp|daemon = named|pid = 2513|clientip = 192.168.2.56|clientport = 33286|query = suggestqueries.google.com|rrname = IN|rrtype = A|options = +|nsname = 192.168.2.54
eventno = None|eventtype = BINDDNSQUERY|origin = n30-hp|timestamp = 1308410099|timestampusec = 0|hostname = n30-hp|daemon = named|pid = 2513|clientip = 192.168.2.56|clientport = 44273|query = suggestqueries.google.com|rrname = IN|rrtype = A|options = +T|nsname = 192.168.2.54
eventno = None|eventtype = BINDDNSQUERY|origin = n30-hp|timestamp = 1308410107|timestampusec = 0|hostname = n30-hp|daemon = named|pid = 2513|clientip = 192.168.2.56|clientport = 39626|query = www.google.com|rrname = IN|rrtype = A|options = +|nsname = 192.168.2.54
eventno = None|eventtype = BINDDNSQUERY|origin = n30-hp|timestamp = 1308410107|timestampusec = 0|hostname = n30-hp|daemon = named|pid = 2513|clientip = 192.168.2.56|clientport = 41242|query = www.google.com|rrname = IN|rrtype = A|options = +|nsname = 192.168.2.54
eventno = None|eventtype = BINDDNSQUERY|origin = n30-hp|timestamp = 1308410107|timestampusec = 0|hostname = n30-hp|daemon = named|pid = 2513|clientip = 192.168.2.56|clientport = 46097|query = ssl.gstatic.com|rrname = IN|rrtype = A|options = +|nsname = 192.168.2.54
eventno = None|eventtype = BINDDNSQUERY|origin = n30-hp|timestamp = 1308410107|timestampusec = 0|hostname = n30-hp|daemon = named|pid = 2513|clientip = 192.168.2.56|clientport = 33632|query = id.google.com|rrname = IN|rrtype = A|options = +|nsname = 192.168.2.54
eventno = None|eventtype = BINDDNSQUERY|origin = n30-hp|timestamp = 1308410107|timestampusec = 0|hostname = n30-hp|daemon = named|pid = 2513|clientip = 192.168.2.56|clientport = 44281|query = id.google.com|rrname = IN|rrtype = A|options = +T|nsname = 192.168.2.54
eventno = None|eventtype = BINDDNSQUERY|origin = n30-hp|timestamp = 1308410107|timestampusec = 0|hostname = n30-hp|daemon = named|pid = 2513|clientip = 192.168.2.56|clientport = 45470|query = id.google.com|rrname = IN|rrtype = A|options = +|nsname = 192.168.2.54
eventno = None|eventtype = BINDDNSQUERY|origin = n30-hp|timestamp = 1308410107|timestampusec = 0|hostname = n30-hp|daemon = named|pid = 2513|clientip = 192.168.2.56|clientport = 44282|query = id.google.com|rrname = IN|rrtype = A|options = +T|nsname = 192.168.2.54
eventno = None|eventtype = BINDDNSQUERY|origin = n30-hp|timestamp = 1308410107|timestampusec = 0|hostname = n30-hp|daemon = named|pid = 2513|clientip = 192.168.2.56|clientport = 56652|query = clients1.google.com|rrname = IN|rrtype = A|options = +|nsname = 192.168.2.54
eventno = None|eventtype = BINDDNSQUERY|origin = n30-hp|timestamp = 1308410108|timestampusec = 0|hostname = n30-hp|daemon = named|pid = 2513|clientip = 192.168.2.56|clientport = 44284|query = clients1.google.com|rrname = IN|rrtype = A|options = +T|nsname = 192.168.2.54
eventno = None|eventtype = BINDDNSQUERY|origin = n30-hp|timestamp = 1308410108|timestampusec = 0|hostname = n30-hp|daemon = named|pid = 2513|clientip = 192.168.2.56|clientport = 43001|query = clients1.google.com|rrname = IN|rrtype = A|options = +|nsname = 192.168.2.54
eventno = None|eventtype = BINDDNSQUERY|origin = n30-hp|timestamp = 1308410108|timestampusec = 0|hostname = n30-hp|daemon = named|pid = 2513|clientip = 192.168.2.56|clientport = 44285|query = clients1.google.com|rrname = IN|rrtype = A|options = +T|nsname = 192.168.2.54
eventno = None|eventtype = BINDDNSQUERY|origin = n30-hp|timestamp = 1308410108|timestampusec = 0|hostname = n30-hp|daemon = named|pid = 2513|clientip = 192.168.2.56|clientport = 50190|query = mail.google.com|rrname = IN|rrtype = A|options = +|nsname = 192.168.2.54
eventno = None|eventtype = BINDDNSQUERY|origin = n30-hp|timestamp = 1308410108|timestampusec = 0|hostname = n30-hp|daemon = named|pid = 2513|clientip = 192.168.2.56|clientport = 58494|query = maps.google.com|rrname = IN|rrtype = A|options = +|nsname = 192.168.2.54
eventno = None|eventtype = BINDDNSQUERY|origin = n30-hp|timestamp = 1308410108|timestampusec = 0|hostname = n30-hp|daemon = named|pid = 2513|clientip = 192.168.2.56|clientport = 34912|query = translate.google.com|rrname = IN|rrtype = A|options = +|nsname = 192.168.2.54
eventno = None|eventtype = BINDDNSQUERY|origin = n30-hp|timestamp = 1308410108|timestampusec = 0|hostname = n30-hp|daemon = named|pid = 2513|clientip = 192.168.2.56|clientport = 37893|query = mail.google.com|rrname = IN|rrtype = A|options = +|nsname = 192.168.2.54
eventno = None|eventtype = BINDDNSQUERY|origin = n30-hp|timestamp = 1308410108|timestampusec = 0|hostname = n30-hp|daemon = named|pid = 2513|clientip = 192.168.2.56|clientport = 38397|query = scholar.google.com|rrname = IN|rrtype = A|options = +|nsname = 192.168.2.54
eventno = None|eventtype = BINDDNSQUERY|origin = n30-hp|timestamp = 1308410108|timestampusec = 0|hostname = n30-hp|daemon = named|pid = 2513|clientip = 192.168.2.56|clientport = 49994|query = maps.google.com|rrname = IN|rrtype = A|options = +|nsname = 192.168.2.54
eventno = None|eventtype = BINDDNSQUERY|origin = n30-hp|timestamp = 1308410108|timestampusec = 0|hostname = n30-hp|daemon = named|pid = 2513|clientip = 192.168.2.56|clientport = 55451|query = www.youtube.com|rrname = IN|rrtype = A|options = +|nsname = 192.168.2.54
eventno = None|eventtype = BINDDNSQUERY|origin = n30-hp|timestamp = 1308410108|timestampusec = 0|hostname = n30-hp|daemon = named|pid = 2513|clientip = 192.168.2.56|clientport = 44287|query = translate.google.com|rrname = IN|rrtype = A|options = +T|nsname = 192.168.2.54
eventno = None|eventtype = BINDDNSQUERY|origin = n30-hp|timestamp = 1308410108|timestampusec = 0|hostname = n30-hp|daemon = named|pid = 2513|clientip = 192.168.2.56|clientport = 49686|query = translate.google.com|rrname = IN|rrtype = A|options = +|nsname = 192.168.2.54
eventno = None|eventtype = BINDDNSQUERY|origin = n30-hp|timestamp = 1308410108|timestampusec = 0|hostname = n30-hp|daemon = named|pid = 2513|clientip = 192.168.2.56|clientport = 44288|query = translate.google.com|rrname = IN|rrtype = A|options = +T|nsname = 192.168.2.54
eventno = None|eventtype = BINDDNSQUERY|origin = n30-hp|timestamp = 1308410108|timestampusec = 0|hostname = n30-hp|daemon = named|pid = 2513|clientip = 192.168.2.56|clientport = 57792|query = picasaweb.google.com|rrname = IN|rrtype = A|options = +|nsname = 192.168.2.54
eventno = None|eventtype = BINDDNSQUERY|origin = n30-hp|timestamp = 1308410108|timestampusec = 0|hostname = n30-hp|daemon = named|pid = 2513|clientip = 192.168.2.56|clientport = 37484|query = scholar.google.com|rrname = IN|rrtype = A|options = +|nsname = 192.168.2.54
eventno = None|eventtype = BINDDNSQUERY|origin = n30-hp|timestamp = 1308410108|timestampusec = 0|hostname = n30-hp|daemon = named|pid = 2513|clientip = 192.168.2.56|clientport = 52885|query = docs.google.com|rrname = IN|rrtype = A|options = +|nsname = 192.168.2.54
eventno = None|eventtype = BINDDNSQUERY|origin = n30-hp|timestamp = 1308410108|timestampusec = 0|hostname = n30-hp|daemon = named|pid = 2513|clientip = 192.168.2.56|clientport = 45353|query = docs.google.com|rrname = IN|rrtype = A|options = +|nsname = 192.168.2.54
eventno = None|eventtype = BINDDNSQUERY|origin = n30-hp|timestamp = 1308410108|timestampusec = 0|hostname = n30-hp|daemon = named|pid = 2513|clientip = 192.168.2.56|clientport = 55329|query = sites.google.com|rrname = IN|rrtype = A|options = +|nsname = 192.168.2.54
eventno = None|eventtype = BINDDNSQUERY|origin = n30-hp|timestamp = 1308410108|timestampusec = 0|hostname = n30-hp|daemon = named|pid = 2513|clientip = 192.168.2.56|clientport = 44289|query = www.youtube.com|rrname = IN|rrtype = A|options = +T|nsname = 192.168.2.54
eventno = None|eventtype = BINDDNSQUERY|origin = n30-hp|timestamp = 1308410108|timestampusec = 0|hostname = n30-hp|daemon = named|pid = 2513|clientip = 192.168.2.56|clientport = 50461|query = www.youtube.com|rrname = IN|rrtype = A|options = +|nsname = 192.168.2.54
eventno = None|eventtype = BINDDNSQUERY|origin = n30-hp|timestamp = 1308410108|timestampusec = 0|hostname = n30-hp|daemon = named|pid = 2513|clientip = 192.168.2.56|clientport = 44290|query = www.youtube.com|rrname = IN|rrtype = A|options = +T|nsname = 192.168.2.54
[...]
eventno = None|eventtype = BINDDNSQUERY|origin = n30-hp|timestamp = 1308426284|timestampusec = 0|hostname = n30-hp|daemon = named|pid = 2513|clientip = 192.168.2.51|clientport = 52765|query = api.facebook.com|rrname = IN|rrtype = AAAA|options = +|nsname = 192.168.2.54
eventno = None|eventtype = BINDDNSQUERY|origin = n30-hp|timestamp = 1308426284|timestampusec = 0|hostname = n30-hp|daemon = named|pid = 2513|clientip = 192.168.2.51|clientport = 58986|query = api.facebook.com|rrname = IN|rrtype = AAAA|options = +|nsname = 192.168.2.54
eventno = None|eventtype = BINDDNSQUERY|origin = n30-hp|timestamp = 1308426284|timestampusec = 0|hostname = n30-hp|daemon = named|pid = 2513|clientip = 192.168.2.51|clientport = 39528|query = api.facebook.com|rrname = IN|rrtype = A|options = +|nsname = 192.168.2.54
eventno = None|eventtype = BINDDNSQUERY|origin = n30-hp|timestamp = 1308426286|timestampusec = 0|hostname = n30-hp|daemon = named|pid = 2513|clientip = 192.168.2.51|clientport = 33507|query = api.facebook.com|rrname = IN|rrtype = AAAA|options = +|nsname = 192.168.2.54
eventno = None|eventtype = BINDDNSQUERY|origin = n30-hp|timestamp = 1308426286|timestampusec = 0|hostname = n30-hp|daemon = named|pid = 2513|clientip = 192.168.2.51|clientport = 59025|query = api.facebook.com|rrname = IN|rrtype = AAAA|options = +|nsname = 192.168.2.54
eventno = None|eventtype = BINDDNSQUERY|origin = n30-hp|timestamp = 1308426286|timestampusec = 0|hostname = n30-hp|daemon = named|pid = 2513|clientip = 192.168.2.51|clientport = 40250|query = api.facebook.com|rrname = IN|rrtype = A|options = +|nsname = 192.168.2.54
eventno = None|eventtype = BINDDNSQUERY|origin = n30-hp|timestamp = 1308426287|timestampusec = 0|hostname = n30-hp|daemon = named|pid = 2513|clientip = 192.168.2.51|clientport = 36153|query = api.flickr.com|rrname = IN|rrtype = AAAA|options = +|nsname = 192.168.2.54
eventno = None|eventtype = BINDDNSQUERY|origin = n30-hp|timestamp = 1308426287|timestampusec = 0|hostname = n30-hp|daemon = named|pid = 2513|clientip = 192.168.2.51|clientport = 39061|query = api.flickr.com|rrname = IN|rrtype = A|options = +|nsname = 192.168.2.54
eventno = None|eventtype = BINDDNSQUERY|origin = n30-hp|timestamp = 1308426287|timestampusec = 0|hostname = n30-hp|daemon = named|pid = 2513|clientip = 192.168.2.51|clientport = 50130|query = api.twitter.com|rrname = IN|rrtype = AAAA|options = +|nsname = 192.168.2.54
eventno = None|eventtype = BINDDNSQUERY|origin = n30-hp|timestamp = 1308426287|timestampusec = 0|hostname = n30-hp|daemon = named|pid = 2513|clientip = 192.168.2.51|clientport = 57669|query = api.twitter.com|rrname = IN|rrtype = AAAA|options = +|nsname = 192.168.2.54
eventno = None|eventtype = BINDDNSQUERY|origin = n30-hp|timestamp = 1308426288|timestampusec = 0|hostname = n30-hp|daemon = named|pid = 2513|clientip = 192.168.2.51|clientport = 60731|query = api.twitter.com|rrname = IN|rrtype = A|options = +|nsname = 192.168.2.54
eventno = None|eventtype = BINDDNSQUERY|origin = n30-hp|timestamp = 1308426288|timestampusec = 0|hostname = n30-hp|daemon = named|pid = 2513|clientip = 192.168.2.51|clientport = 34836|query = api.twitter.com|rrname = IN|rrtype = AAAA|options = +|nsname = 192.168.2.54
eventno = None|eventtype = BINDDNSQUERY|origin = n30-hp|timestamp = 1308426288|timestampusec = 0|hostname = n30-hp|daemon = named|pid = 2513|clientip = 192.168.2.51|clientport = 47292|query = api.twitter.com|rrname = IN|rrtype = AAAA|options = +|nsname = 192.168.2.54
eventno = None|eventtype = BINDDNSQUERY|origin = n30-hp|timestamp = 1308426288|timestampusec = 0|hostname = n30-hp|daemon = named|pid = 2513|clientip = 192.168.2.51|clientport = 60851|query = api.twitter.com|rrname = IN|rrtype = A|options = +|nsname = 192.168.2.54
eventno = None|eventtype = BINDDNSQUERY|origin = n30-hp|timestamp = 1308426289|timestampusec = 0|hostname = n30-hp|daemon = named|pid = 2513|clientip = 192.168.2.51|clientport = 55076|query = api.twitter.com|rrname = IN|rrtype = AAAA|options = +|nsname = 192.168.2.54
eventno = None|eventtype = BINDDNSQUERY|origin = n30-hp|timestamp = 1308426289|timestampusec = 0|hostname = n30-hp|daemon = named|pid = 2513|clientip = 192.168.2.51|clientport = 56464|query = api.twitter.com|rrname = IN|rrtype = AAAA|options = +|nsname = 192.168.2.54
eventno = None|eventtype = BINDDNSQUERY|origin = n30-hp|timestamp = 1308426289|timestampusec = 0|hostname = n30-hp|daemon = named|pid = 2513|clientip = 192.168.2.51|clientport = 55869|query = api.twitter.com|rrname = IN|rrtype = A|options = +|nsname = 192.168.2.54
eventno = None|eventtype = BINDDNSQUERY|origin = n30-hp|timestamp = 1308426422|timestampusec = 0|hostname = n30-hp|daemon = named|pid = 2513|clientip = 192.168.2.51|clientport = 50726|query = boreas.isi.edu|rrname = IN|rrtype = A|options = +|nsname = 192.168.2.54
eventno = None|eventtype = BINDDNSQUERY|origin = n30-hp|timestamp = 1308426437|timestampusec = 0|hostname = n30-hp|daemon = named|pid = 2513|clientip = 192.168.2.51|clientport = 48864|query = www.google.com|rrname = IN|rrtype = A|options = +|nsname = 192.168.2.54
eventno = None|eventtype = BINDDNSQUERY|origin = n30-hp|timestamp = 1308426577|timestampusec = 0|hostname = n30-hp|daemon = named|pid = 2513|clientip = 192.168.2.55|clientport = 37802|query = www.google-analytics.com|rrname = IN|rrtype = A|options = +|nsname = 192.168.2.54
eventno = None|eventtype = BINDDNSQUERY|origin = n30-hp|timestamp = 1308426582|timestampusec = 0|hostname = n30-hp|daemon = named|pid = 2513|clientip = 192.168.2.51|clientport = 34640|query = api.facebook.com|rrname = IN|rrtype = AAAA|options = +|nsname = 192.168.2.54
eventno = None|eventtype = BINDDNSQUERY|origin = n30-hp|timestamp = 1308426582|timestampusec = 0|hostname = n30-hp|daemon = named|pid = 2513|clientip = 192.168.2.51|clientport = 46156|query = api.facebook.com|rrname = IN|rrtype = AAAA|options = +|nsname = 192.168.2.54
eventno = None|eventtype = BINDDNSQUERY|origin = n30-hp|timestamp = 1308426582|timestampusec = 0|hostname = n30-hp|daemon = named|pid = 2513|clientip = 192.168.2.51|clientport = 35270|query = api.facebook.com|rrname = IN|rrtype = A|options = +|nsname = 192.168.2.54
eventno = None|eventtype = BINDDNSQUERY|origin = n30-hp|timestamp = 1308426584|timestampusec = 0|hostname = n30-hp|daemon = named|pid = 2513|clientip = 192.168.2.51|clientport = 46015|query = api.facebook.com|rrname = IN|rrtype = AAAA|options = +|nsname = 192.168.2.54
eventno = None|eventtype = BINDDNSQUERY|origin = n30-hp|timestamp = 1308426584|timestampusec = 0|hostname = n30-hp|daemon = named|pid = 2513|clientip = 192.168.2.51|clientport = 45220|query = api.facebook.com|rrname = IN|rrtype = AAAA|options = +|nsname = 192.168.2.54
eventno = None|eventtype = BINDDNSQUERY|origin = n30-hp|timestamp = 1308426584|timestampusec = 0|hostname = n30-hp|daemon = named|pid = 2513|clientip = 192.168.2.51|clientport = 59319|query = api.facebook.com|rrname = IN|rrtype = A|options = +|nsname = 192.168.2.54
eventno = None|eventtype = BINDDNSQUERY|origin = n30-hp|timestamp = 1308426585|timestampusec = 0|hostname = n30-hp|daemon = named|pid = 2513|clientip = 192.168.2.52|clientport = 62238|query = safebrowsing.clients.google.com|rrname = IN|rrtype = A|options = +|nsname = 192.168.2.54
eventno = None|eventtype = BINDDNSQUERY|origin = n30-hp|timestamp = 1308426586|timestampusec = 0|hostname = n30-hp|daemon = named|pid = 2513|clientip = 192.168.2.52|clientport = 56047|query = safebrowsing-cache.google.com|rrname = IN|rrtype = A|options = +|nsname = 192.168.2.54
eventno = None|eventtype = BINDDNSQUERY|origin = n30-hp|timestamp = 1308426587|timestampusec = 0|hostname = n30-hp|daemon = named|pid = 2513|clientip = 192.168.2.51|clientport = 56577|query = api.facebook.com|rrname = IN|rrtype = AAAA|options = +|nsname = 192.168.2.54
eventno = None|eventtype = BINDDNSQUERY|origin = n30-hp|timestamp = 1308426587|timestampusec = 0|hostname = n30-hp|daemon = named|pid = 2513|clientip = 192.168.2.51|clientport = 40952|query = api.facebook.com|rrname = IN|rrtype = AAAA|options = +|nsname = 192.168.2.54
eventno = None|eventtype = BINDDNSQUERY|origin = n30-hp|timestamp = 1308426587|timestampusec = 0|hostname = n30-hp|daemon = named|pid = 2513|clientip = 192.168.2.51|clientport = 58574|query = api.facebook.com|rrname = IN|rrtype = A|options = +|nsname = 192.168.2.54
eventno = None|eventtype = BINDDNSQUERY|origin = n30-hp|timestamp = 1308426588|timestampusec = 0|hostname = n30-hp|daemon = named|pid = 2513|clientip = 192.168.2.51|clientport = 52470|query = api.flickr.com|rrname = IN|rrtype = AAAA|options = +|nsname = 192.168.2.54
eventno = None|eventtype = BINDDNSQUERY|origin = n30-hp|timestamp = 1308426588|timestampusec = 0|hostname = n30-hp|daemon = named|pid = 2513|clientip = 192.168.2.51|clientport = 33524|query = api.flickr.com|rrname = IN|rrtype = A|options = +|nsname = 192.168.2.54
eventno = None|eventtype = BINDDNSQUERY|origin = n30-hp|timestamp = 1308426589|timestampusec = 0|hostname = n30-hp|daemon = named|pid = 2513|clientip = 192.168.2.51|clientport = 59125|query = api.twitter.com|rrname = IN|rrtype = AAAA|options = +|nsname = 192.168.2.54
eventno = None|eventtype = BINDDNSQUERY|origin = n30-hp|timestamp = 1308426589|timestampusec = 0|hostname = n30-hp|daemon = named|pid = 2513|clientip = 192.168.2.51|clientport = 53172|query = api.twitter.com|rrname = IN|rrtype = AAAA|options = +|nsname = 192.168.2.54
eventno = None|eventtype = BINDDNSQUERY|origin = n30-hp|timestamp = 1308426589|timestampusec = 0|hostname = n30-hp|daemon = named|pid = 2513|clientip = 192.168.2.51|clientport = 60378|query = api.twitter.com|rrname = IN|rrtype = A|options = +|nsname = 192.168.2.54
eventno = None|eventtype = BINDDNSQUERY|origin = n30-hp|timestamp = 1308426589|timestampusec = 0|hostname = n30-hp|daemon = named|pid = 2513|clientip = 192.168.2.51|clientport = 35399|query = api.twitter.com|rrname = IN|rrtype = AAAA|options = +|nsname = 192.168.2.54
eventno = None|eventtype = BINDDNSQUERY|origin = n30-hp|timestamp = 1308426589|timestampusec = 0|hostname = n30-hp|daemon = named|pid = 2513|clientip = 192.168.2.51|clientport = 34655|query = api.twitter.com|rrname = IN|rrtype = AAAA|options = +|nsname = 192.168.2.54
eventno = None|eventtype = BINDDNSQUERY|origin = n30-hp|timestamp = 1308426589|timestampusec = 0|hostname = n30-hp|daemon = named|pid = 2513|clientip = 192.168.2.51|clientport = 41472|query = api.twitter.com|rrname = IN|rrtype = A|options = +|nsname = 192.168.2.54
eventno = None|eventtype = BINDDNSQUERY|origin = n30-hp|timestamp = 1308426590|timestampusec = 0|hostname = n30-hp|daemon = named|pid = 2513|clientip = 192.168.2.51|clientport = 39208|query = api.twitter.com|rrname = IN|rrtype = AAAA|options = +|nsname = 192.168.2.54
eventno = None|eventtype = BINDDNSQUERY|origin = n30-hp|timestamp = 1308426590|timestampusec = 0|hostname = n30-hp|daemon = named|pid = 2513|clientip = 192.168.2.51|clientport = 34711|query = api.twitter.com|rrname = IN|rrtype = AAAA|options = +|nsname = 192.168.2.54
eventno = None|eventtype = BINDDNSQUERY|origin = n30-hp|timestamp = 1308426590|timestampusec = 0|hostname = n30-hp|daemon = named|pid = 2513|clientip = 192.168.2.51|clientport = 54848|query = api.twitter.com|rrname = IN|rrtype = A|options = +|nsname = 192.168.2.54
eventno = None|eventtype = BINDDNSQUERY|origin = n30-hp|timestamp = 1308426606|timestampusec = 0|hostname = n30-hp|daemon = named|pid = 2513|clientip = 192.168.2.55|clientport = 18753|query = projectappetite.com|rrname = IN|rrtype = A|options = +|nsname = 192.168.2.54
eventno = None|eventtype = BINDDNSQUERY|origin = n30-hp|timestamp = 1308426617|timestampusec = 0|hostname = n30-hp|daemon = named|pid = 2513|clientip = 192.168.2.51|clientport = 41459|query = www.google.com|rrname = IN|rrtype = A|options = +|nsname = 192.168.2.54
eventno = None|eventtype = BINDDNSQUERY|origin = n30-hp|timestamp = 1308426617|timestampusec = 0|hostname = n30-hp|daemon = named|pid = 2513|clientip = 192.168.2.51|clientport = 34206|query = www.google.com|rrname = IN|rrtype = A|options = +|nsname = 192.168.2.54
eventno = None|eventtype = BINDDNSQUERY|origin = n30-hp|timestamp = 1308426668|timestampusec = 0|hostname = n30-hp|daemon = named|pid = 2513|clientip = 192.168.2.51|clientport = 58118|query = couchdb.one.ubuntu.com|rrname = IN|rrtype = A|options = +|nsname = 192.168.2.54
eventno = None|eventtype = BINDDNSQUERY|origin = n30-hp|timestamp = 1308426669|timestampusec = 0|hostname = n30-hp|daemon = named|pid = 2513|clientip = 192.168.2.51|clientport = 51070|query = couchdb.one.ubuntu.com|rrname = IN|rrtype = A|options = +|nsname = 192.168.2.54
eventno = None|eventtype = BINDDNSQUERY|origin = n30-hp|timestamp = 1308426670|timestampusec = 0|hostname = n30-hp|daemon = named|pid = 2513|clientip = 192.168.2.51|clientport = 57581|query = couchdb.one.ubuntu.com|rrname = IN|rrtype = A|options = +|nsname = 192.168.2.54
eventno = None|eventtype = BINDDNSQUERY|origin = n30-hp|timestamp = 1308426671|timestampusec = 0|hostname = n30-hp|daemon = named|pid = 2513|clientip = 192.168.2.51|clientport = 49380|query = couchdb.one.ubuntu.com|rrname = IN|rrtype = A|options = +|nsname = 192.168.2.54
eventno = None|eventtype = BINDDNSQUERY|origin = n30-hp|timestamp = 1308426671|timestampusec = 0|hostname = n30-hp|daemon = named|pid = 2513|clientip = 192.168.2.51|clientport = 37213|query = couchdb.one.ubuntu.com|rrname = IN|rrtype = A|options = +|nsname = 192.168.2.54
eventno = None|eventtype = BINDDNSQUERY|origin = n30-hp|timestamp = 1308426672|timestampusec = 0|hostname = n30-hp|daemon = named|pid = 2513|clientip = 192.168.2.51|clientport = 38393|query = couchdb.one.ubuntu.com|rrname = IN|rrtype = A|options = +|nsname = 192.168.2.54
eventno = None|eventtype = BINDDNSQUERY|origin = n30-hp|timestamp = 1308426673|timestampusec = 0|hostname = n30-hp|daemon = named|pid = 2513|clientip = 192.168.2.51|clientport = 39010|query = couchdb.one.ubuntu.com|rrname = IN|rrtype = A|options = +|nsname = 192.168.2.54
eventno = None|eventtype = BINDDNSQUERY|origin = n30-hp|timestamp = 1308426674|timestampusec = 0|hostname = n30-hp|daemon = named|pid = 2513|clientip = 192.168.2.51|clientport = 42132|query = couchdb.one.ubuntu.com|rrname = IN|rrtype = A|options = +|nsname = 192.168.2.54
eventno = None|eventtype = BINDDNSQUERY|origin = n30-hp|timestamp = 1308426675|timestampusec = 0|hostname = n30-hp|daemon = named|pid = 2513|clientip = 192.168.2.51|clientport = 55486|query = couchdb.one.ubuntu.com|rrname = IN|rrtype = A|options = +|nsname = 192.168.2.54
eventno = None|eventtype = BINDDNSQUERY|origin = n30-hp|timestamp = 1308426676|timestampusec = 0|hostname = n30-hp|daemon = named|pid = 2513|clientip = 192.168.2.51|clientport = 41273|query = couchdb.one.ubuntu.com|rrname = IN|rrtype = A|options = +|nsname = 192.168.2.54
eventno = None|eventtype = BINDDNSQUERY|origin = n30-hp|timestamp = 1308426677|timestampusec = 0|hostname = n30-hp|daemon = named|pid = 2513|clientip = 192.168.2.51|clientport = 40679|query = couchdb.one.ubuntu.com|rrname = IN|rrtype = A|options = +|nsname = 192.168.2.54
eventno = None|eventtype = BINDDNSQUERY|origin = n30-hp|timestamp = 1308426678|timestampusec = 0|hostname = n30-hp|daemon = named|pid = 2513|clientip = 192.168.2.51|clientport = 54055|query = couchdb.one.ubuntu.com|rrname = IN|rrtype = A|options = +|nsname = 192.168.2.54
eventno = None|eventtype = BINDDNSQUERY|origin = n30-hp|timestamp = 1308426678|timestampusec = 0|hostname = n30-hp|daemon = named|pid = 2513|clientip = 192.168.2.51|clientport = 34276|query = couchdb.one.ubuntu.com|rrname = IN|rrtype = A|options = +|nsname = 192.168.2.54
eventno = None|eventtype = BINDDNSQUERY|origin = n30-hp|timestamp = 1308426748|timestampusec = 0|hostname = n30-hp|daemon = named|pid = 2513|clientip = 192.168.2.51|clientport = 44830|query = safebrowsing.clients.google.com|rrname = IN|rrtype = A|options = +|nsname = 192.168.2.54
eventno = None|eventtype = BINDDNSQUERY|origin = n30-hp|timestamp = 1308426748|timestampusec = 0|hostname = n30-hp|daemon = named|pid = 2513|clientip = 192.168.2.51|clientport = 36482|query = wpad|rrname = IN|rrtype = A|options = +|nsname = 192.168.2.54
eventno = None|eventtype = BINDDNSQUERY|origin = n30-hp|timestamp = 1308426748|timestampusec = 0|hostname = n30-hp|daemon = named|pid = 2513|clientip = 192.168.2.51|clientport = 41702|query = safebrowsing.clients.google.com|rrname = IN|rrtype = A|options = +|nsname = 192.168.2.54
eventno = None|eventtype = BINDDNSQUERY|origin = n30-hp|timestamp = 1308426748|timestampusec = 0|hostname = n30-hp|daemon = named|pid = 2513|clientip = 192.168.2.51|clientport = 43564|query = safebrowsing.clients.google.com|rrname = IN|rrtype = A|options = +|nsname = 192.168.2.54
eventno = None|eventtype = BINDDNSQUERY|origin = n30-hp|timestamp = 1308426748|timestampusec = 0|hostname = n30-hp|daemon = named|pid = 2513|clientip = 192.168.2.51|clientport = 51214|query = safebrowsing.clients.google.com|rrname = IN|rrtype = A|options = +|nsname = 192.168.2.54
eventno = None|eventtype = BINDDNSQUERY|origin = n30-hp|timestamp = 1308426748|timestampusec = 0|hostname = n30-hp|daemon = named|pid = 2513|clientip = 192.168.2.51|clientport = 51473|query = safebrowsing-cache.google.com|rrname = IN|rrtype = A|options = +|nsname = 192.168.2.54
eventno = None|eventtype = BINDDNSQUERY|origin = n30-hp|timestamp = 1308426797|timestampusec = 0|hostname = n30-hp|daemon = named|pid = 2513|clientip = 192.168.2.51|clientport = 51708|query = www.google.com|rrname = IN|rrtype = A|options = +|nsname = 192.168.2.54
eventno = None|eventtype = BINDDNSQUERY|origin = n30-hp|timestamp = 1308426818|timestampusec = 0|hostname = n30-hp|daemon = named|pid = 2513|clientip = 192.168.2.56|clientport = 58458|query = n30-hp.troynet|rrname = IN|rrtype = AAAA|options = +|nsname = 192.168.2.54
eventno = None|eventtype = BINDDNSQUERY|origin = n30-hp|timestamp = 1308426818|timestampusec = 0|hostname = n30-hp|daemon = named|pid = 2513|clientip = 192.168.2.56|clientport = 55016|query = n30-hp.troynet|rrname = IN|rrtype = AAAA|options = +|nsname = 192.168.2.54
eventno = None|eventtype = BINDDNSQUERY|origin = n30-hp|timestamp = 1308426818|timestampusec = 0|hostname = n30-hp|daemon = named|pid = 2513|clientip = 192.168.2.56|clientport = 55771|query = n30-hp.troynet|rrname = IN|rrtype = A|options = +|nsname = 192.168.2.54
eventno = None|eventtype = BINDDNSQUERY|origin = n30-hp|timestamp = 1308426818|timestampusec = 0|hostname = n30-hp|daemon = named|pid = 2513|clientip = 192.168.2.54|clientport = 55125|query = 56.2.168.192.in-addr.arpa|rrname = IN|rrtype = PTR|options = +|nsname = 192.168.2.54
eventno = None|eventtype = BINDDNSQUERY|origin = n30-hp|timestamp = 1308426818|timestampusec = 0|hostname = n30-hp|daemon = named|pid = 2513|clientip = 192.168.2.54|clientport = 52822|query = sparkle.troynet|rrname = IN|rrtype = A|options = +|nsname = 192.168.2.54
eventno = None|eventtype = BINDDNSQUERY|origin = n30-hp|timestamp = 1308426822|timestampusec = 0|hostname = n30-hp|daemon = named|pid = 2513|clientip = 192.168.2.56|clientport = 58987|query = boreas.isi.edu|rrname = IN|rrtype = AAAA|options = +|nsname = 192.168.2.54
eventno = None|eventtype = BINDDNSQUERY|origin = n30-hp|timestamp = 1308426822|timestampusec = 0|hostname = n30-hp|daemon = named|pid = 2513|clientip = 192.168.2.56|clientport = 41972|query = boreas.isi.edu|rrname = IN|rrtype = AAAA|options = +|nsname = 192.168.2.54
eventno = None|eventtype = BINDDNSQUERY|origin = n30-hp|timestamp = 1308426822|timestampusec = 0|hostname = n30-hp|daemon = named|pid = 2513|clientip = 192.168.2.56|clientport = 40580|query = boreas.isi.edu|rrname = IN|rrtype = A|options = +|nsname = 192.168.2.54
Wrote 2756 events to database
+=============+
| Statistics  |
+=============+
Parsing Failures     : 69
Total Input Records  : 2825
Parsed Successfully  : 2756
Events Output        : 2756
